*SPEF "ieee 1481-1999"
*DESIGN "adder"
*DATE "11:11:11 Fri 11 11, 1111"
*VENDOR "OpenRCX"
*PROGRAM "Parallel Extraction"
*VERSION "1.0"
*DESIGN_FLOW "NAME_SCOPE LOCAL" "PIN_CAP NONE"
*DIVIDER /
*DELIMITER :
*BUS_DELIMITER []
*T_UNIT 1 NS
*C_UNIT 1 PF
*R_UNIT 1 OHM
*L_UNIT 1 HENRY

*NAME_MAP
*1 a_in[0]
*2 a_in[1]
*3 a_in[2]
*4 a_in[3]
*5 a_in[4]
*6 a_in[5]
*7 a_in[6]
*8 a_in[7]
*9 b_in[0]
*10 b_in[1]
*11 b_in[2]
*12 b_in[3]
*13 b_in[4]
*14 b_in[5]
*15 b_in[6]
*16 b_in[7]
*17 sum[0]
*18 sum[1]
*19 sum[2]
*20 sum[3]
*21 sum[4]
*22 sum[5]
*23 sum[6]
*24 sum[7]
*27 _00_
*28 _01_
*29 _02_
*30 _03_
*31 _04_
*32 _05_
*33 _06_
*34 _07_
*35 _08_
*36 _09_
*37 _10_
*38 _11_
*39 _12_
*40 _13_
*41 _14_
*42 _15_
*43 _16_
*44 _17_
*45 _18_
*46 _19_
*47 _20_
*48 _21_
*49 _22_
*50 _23_
*51 _24_
*52 _25_
*53 _26_
*54 _27_
*55 _28_
*56 _29_
*57 _30_
*58 _31_
*59 _32_
*60 _33_
*61 _34_
*62 _35_
*63 _36_
*64 _37_
*65 _38_
*66 _39_
*67 _40_
*68 net1
*69 net10
*70 net11
*71 net12
*72 net13
*73 net14
*74 net15
*75 net16
*76 net17
*77 net18
*78 net19
*79 net2
*80 net20
*81 net21
*82 net22
*83 net23
*84 net24
*85 net3
*86 net4
*87 net5
*88 net6
*89 net7
*90 net8
*91 net9
*92 FILLER_0_0
*93 FILLER_0_1004
*94 FILLER_0_1020
*95 FILLER_0_1036
*96 FILLER_0_1052
*97 FILLER_0_1068
*98 FILLER_0_1084
*99 FILLER_0_1100
*100 FILLER_0_1116
*101 FILLER_0_112
*102 FILLER_0_1132
*103 FILLER_0_1148
*104 FILLER_0_1164
*105 FILLER_0_1180
*106 FILLER_0_1196
*107 FILLER_0_1212
*108 FILLER_0_1228
*109 FILLER_0_1244
*110 FILLER_0_1260
*111 FILLER_0_1276
*112 FILLER_0_128
*113 FILLER_0_1292
*114 FILLER_0_1308
*115 FILLER_0_1324
*116 FILLER_0_1340
*117 FILLER_0_1356
*118 FILLER_0_1372
*119 FILLER_0_1388
*120 FILLER_0_1404
*121 FILLER_0_1420
*122 FILLER_0_1436
*123 FILLER_0_144
*124 FILLER_0_1452
*125 FILLER_0_1468
*126 FILLER_0_1484
*127 FILLER_0_1500
*128 FILLER_0_1516
*129 FILLER_0_1532
*130 FILLER_0_1548
*131 FILLER_0_1564
*132 FILLER_0_1580
*133 FILLER_0_1596
*134 FILLER_0_16
*135 FILLER_0_160
*136 FILLER_0_1612
*137 FILLER_0_1628
*138 FILLER_0_1644
*139 FILLER_0_1660
*140 FILLER_0_1676
*141 FILLER_0_1684
*142 FILLER_0_1740
*143 FILLER_0_1756
*144 FILLER_0_176
*145 FILLER_0_1772
*146 FILLER_0_1788
*147 FILLER_0_1804
*148 FILLER_0_1820
*149 FILLER_0_1836
*150 FILLER_0_1852
*151 FILLER_0_1868
*152 FILLER_0_1884
*153 FILLER_0_1900
*154 FILLER_0_1916
*155 FILLER_0_192
*156 FILLER_0_1932
*157 FILLER_0_1948
*158 FILLER_0_1964
*159 FILLER_0_1980
*160 FILLER_0_1996
*161 FILLER_0_2012
*162 FILLER_0_2028
*163 FILLER_0_2044
*164 FILLER_0_2060
*165 FILLER_0_2076
*166 FILLER_0_208
*167 FILLER_0_2092
*168 FILLER_0_2108
*169 FILLER_0_2124
*170 FILLER_0_2140
*171 FILLER_0_2156
*172 FILLER_0_2172
*173 FILLER_0_2188
*174 FILLER_0_2204
*175 FILLER_0_2220
*176 FILLER_0_2236
*177 FILLER_0_224
*178 FILLER_0_2252
*179 FILLER_0_2268
*180 FILLER_0_2284
*181 FILLER_0_2300
*182 FILLER_0_2316
*183 FILLER_0_2332
*184 FILLER_0_2348
*185 FILLER_0_2364
*186 FILLER_0_2380
*187 FILLER_0_2396
*188 FILLER_0_240
*189 FILLER_0_2412
*190 FILLER_0_2428
*191 FILLER_0_2444
*192 FILLER_0_2460
*193 FILLER_0_2476
*194 FILLER_0_2492
*195 FILLER_0_2508
*196 FILLER_0_2524
*197 FILLER_0_2540
*198 FILLER_0_2556
*199 FILLER_0_256
*200 FILLER_0_2572
*201 FILLER_0_2588
*202 FILLER_0_2604
*203 FILLER_0_2620
*204 FILLER_0_2636
*205 FILLER_0_2652
*206 FILLER_0_2668
*207 FILLER_0_2684
*208 FILLER_0_2700
*209 FILLER_0_2716
*210 FILLER_0_272
*211 FILLER_0_2732
*212 FILLER_0_2748
*213 FILLER_0_2764
*214 FILLER_0_2780
*215 FILLER_0_2796
*216 FILLER_0_2804
*217 FILLER_0_2860
*218 FILLER_0_2876
*219 FILLER_0_288
*220 FILLER_0_2892
*221 FILLER_0_2908
*222 FILLER_0_2924
*223 FILLER_0_2940
*224 FILLER_0_2956
*225 FILLER_0_2972
*226 FILLER_0_2988
*227 FILLER_0_3004
*228 FILLER_0_3020
*229 FILLER_0_3036
*230 FILLER_0_304
*231 FILLER_0_3052
*232 FILLER_0_3068
*233 FILLER_0_3084
*234 FILLER_0_3100
*235 FILLER_0_3116
*236 FILLER_0_3132
*237 FILLER_0_3148
*238 FILLER_0_3164
*239 FILLER_0_3180
*240 FILLER_0_3196
*241 FILLER_0_32
*242 FILLER_0_320
*243 FILLER_0_3212
*244 FILLER_0_3228
*245 FILLER_0_3244
*246 FILLER_0_3260
*247 FILLER_0_3276
*248 FILLER_0_3292
*249 FILLER_0_3308
*250 FILLER_0_3324
*251 FILLER_0_3340
*252 FILLER_0_3356
*253 FILLER_0_336
*254 FILLER_0_3372
*255 FILLER_0_3388
*256 FILLER_0_3404
*257 FILLER_0_3420
*258 FILLER_0_3436
*259 FILLER_0_3452
*260 FILLER_0_3468
*261 FILLER_0_3484
*262 FILLER_0_3500
*263 FILLER_0_3516
*264 FILLER_0_352
*265 FILLER_0_3532
*266 FILLER_0_3548
*267 FILLER_0_3564
*268 FILLER_0_3580
*269 FILLER_0_3596
*270 FILLER_0_3612
*271 FILLER_0_3628
*272 FILLER_0_3644
*273 FILLER_0_3660
*274 FILLER_0_3676
*275 FILLER_0_368
*276 FILLER_0_3692
*277 FILLER_0_3708
*278 FILLER_0_3724
*279 FILLER_0_3740
*280 FILLER_0_3756
*281 FILLER_0_3772
*282 FILLER_0_3788
*283 FILLER_0_3804
*284 FILLER_0_3820
*285 FILLER_0_3836
*286 FILLER_0_384
*287 FILLER_0_3852
*288 FILLER_0_3868
*289 FILLER_0_3884
*290 FILLER_0_3900
*291 FILLER_0_3916
*292 FILLER_0_3924
*293 FILLER_0_3980
*294 FILLER_0_3996
*295 FILLER_0_400
*296 FILLER_0_4012
*297 FILLER_0_4028
*298 FILLER_0_4044
*299 FILLER_0_4060
*300 FILLER_0_4076
*301 FILLER_0_4092
*302 FILLER_0_4108
*303 FILLER_0_4124
*304 FILLER_0_4140
*305 FILLER_0_4156
*306 FILLER_0_416
*307 FILLER_0_4172
*308 FILLER_0_4188
*309 FILLER_0_4204
*310 FILLER_0_4220
*311 FILLER_0_4236
*312 FILLER_0_4252
*313 FILLER_0_4268
*314 FILLER_0_4284
*315 FILLER_0_4300
*316 FILLER_0_4316
*317 FILLER_0_432
*318 FILLER_0_4332
*319 FILLER_0_4348
*320 FILLER_0_4364
*321 FILLER_0_4380
*322 FILLER_0_4396
*323 FILLER_0_4412
*324 FILLER_0_4428
*325 FILLER_0_4444
*326 FILLER_0_4460
*327 FILLER_0_4476
*328 FILLER_0_448
*329 FILLER_0_4492
*330 FILLER_0_4508
*331 FILLER_0_4524
*332 FILLER_0_4540
*333 FILLER_0_4556
*334 FILLER_0_4572
*335 FILLER_0_4588
*336 FILLER_0_4604
*337 FILLER_0_4620
*338 FILLER_0_4636
*339 FILLER_0_464
*340 FILLER_0_4652
*341 FILLER_0_4668
*342 FILLER_0_4684
*343 FILLER_0_4700
*344 FILLER_0_4716
*345 FILLER_0_4732
*346 FILLER_0_4748
*347 FILLER_0_4764
*348 FILLER_0_4780
*349 FILLER_0_4796
*350 FILLER_0_48
*351 FILLER_0_480
*352 FILLER_0_4812
*353 FILLER_0_4828
*354 FILLER_0_4844
*355 FILLER_0_4860
*356 FILLER_0_4876
*357 FILLER_0_4892
*358 FILLER_0_4908
*359 FILLER_0_4924
*360 FILLER_0_4940
*361 FILLER_0_4956
*362 FILLER_0_496
*363 FILLER_0_4972
*364 FILLER_0_4988
*365 FILLER_0_5004
*366 FILLER_0_5020
*367 FILLER_0_5036
*368 FILLER_0_5044
*369 FILLER_0_5100
*370 FILLER_0_5116
*371 FILLER_0_512
*372 FILLER_0_5132
*373 FILLER_0_5148
*374 FILLER_0_5164
*375 FILLER_0_5180
*376 FILLER_0_5196
*377 FILLER_0_5212
*378 FILLER_0_5228
*379 FILLER_0_5244
*380 FILLER_0_5260
*381 FILLER_0_5276
*382 FILLER_0_528
*383 FILLER_0_5292
*384 FILLER_0_5308
*385 FILLER_0_5324
*386 FILLER_0_5340
*387 FILLER_0_5356
*388 FILLER_0_5372
*389 FILLER_0_5388
*390 FILLER_0_5404
*391 FILLER_0_5420
*392 FILLER_0_5436
*393 FILLER_0_544
*394 FILLER_0_5452
*395 FILLER_0_5468
*396 FILLER_0_5484
*397 FILLER_0_5500
*398 FILLER_0_5516
*399 FILLER_0_5532
*400 FILLER_0_5548
*401 FILLER_0_5564
*402 FILLER_0_5580
*403 FILLER_0_5596
*404 FILLER_0_560
*405 FILLER_0_5612
*406 FILLER_0_5628
*407 FILLER_0_5644
*408 FILLER_0_5660
*409 FILLER_0_5676
*410 FILLER_0_5692
*411 FILLER_0_5708
*412 FILLER_0_5724
*413 FILLER_0_5740
*414 FILLER_0_5756
*415 FILLER_0_5772
*416 FILLER_0_5788
*417 FILLER_0_5804
*418 FILLER_0_5820
*419 FILLER_0_5836
*420 FILLER_0_5852
*421 FILLER_0_5868
*422 FILLER_0_5884
*423 FILLER_0_5900
*424 FILLER_0_5916
*425 FILLER_0_5932
*426 FILLER_0_5948
*427 FILLER_0_5964
*428 FILLER_0_5980
*429 FILLER_0_5996
*430 FILLER_0_6012
*431 FILLER_0_6028
*432 FILLER_0_6044
*433 FILLER_0_6060
*434 FILLER_0_6076
*435 FILLER_0_6092
*436 FILLER_0_6108
*437 FILLER_0_6124
*438 FILLER_0_6140
*439 FILLER_0_6156
*440 FILLER_0_6164
*441 FILLER_0_620
*442 FILLER_0_6220
*443 FILLER_0_6236
*444 FILLER_0_6252
*445 FILLER_0_6268
*446 FILLER_0_6284
*447 FILLER_0_6300
*448 FILLER_0_6316
*449 FILLER_0_6332
*450 FILLER_0_6348
*451 FILLER_0_636
*452 FILLER_0_6364
*453 FILLER_0_6380
*454 FILLER_0_6396
*455 FILLER_0_64
*456 FILLER_0_6412
*457 FILLER_0_6428
*458 FILLER_0_6444
*459 FILLER_0_6460
*460 FILLER_0_6476
*461 FILLER_0_6492
*462 FILLER_0_6508
*463 FILLER_0_652
*464 FILLER_0_6524
*465 FILLER_0_6540
*466 FILLER_0_6556
*467 FILLER_0_6572
*468 FILLER_0_6588
*469 FILLER_0_6604
*470 FILLER_0_6620
*471 FILLER_0_6636
*472 FILLER_0_6652
*473 FILLER_0_6668
*474 FILLER_0_668
*475 FILLER_0_6684
*476 FILLER_0_6700
*477 FILLER_0_6716
*478 FILLER_0_6732
*479 FILLER_0_6748
*480 FILLER_0_6764
*481 FILLER_0_6780
*482 FILLER_0_6796
*483 FILLER_0_6812
*484 FILLER_0_6828
*485 FILLER_0_684
*486 FILLER_0_6844
*487 FILLER_0_6860
*488 FILLER_0_6876
*489 FILLER_0_6892
*490 FILLER_0_6908
*491 FILLER_0_6924
*492 FILLER_0_6940
*493 FILLER_0_6956
*494 FILLER_0_6972
*495 FILLER_0_6988
*496 FILLER_0_700
*497 FILLER_0_7004
*498 FILLER_0_7020
*499 FILLER_0_7036
*500 FILLER_0_7052
*501 FILLER_0_7068
*502 FILLER_0_7084
*503 FILLER_0_7100
*504 FILLER_0_7116
*505 FILLER_0_7132
*506 FILLER_0_7148
*507 FILLER_0_716
*508 FILLER_0_7164
*509 FILLER_0_7180
*510 FILLER_0_7196
*511 FILLER_0_7212
*512 FILLER_0_7228
*513 FILLER_0_7244
*514 FILLER_0_7260
*515 FILLER_0_7276
*516 FILLER_0_7284
*517 FILLER_0_732
*518 FILLER_0_7340
*519 FILLER_0_7356
*520 FILLER_0_7372
*521 FILLER_0_7388
*522 FILLER_0_7404
*523 FILLER_0_7420
*524 FILLER_0_7436
*525 FILLER_0_7452
*526 FILLER_0_7468
*527 FILLER_0_748
*528 FILLER_0_7484
*529 FILLER_0_7500
*530 FILLER_0_7516
*531 FILLER_0_7532
*532 FILLER_0_7548
*533 FILLER_0_7564
*534 FILLER_0_7580
*535 FILLER_0_7596
*536 FILLER_0_7612
*537 FILLER_0_7628
*538 FILLER_0_764
*539 FILLER_0_7644
*540 FILLER_0_7660
*541 FILLER_0_7676
*542 FILLER_0_7692
*543 FILLER_0_7708
*544 FILLER_0_7724
*545 FILLER_0_7740
*546 FILLER_0_7756
*547 FILLER_0_7772
*548 FILLER_0_7788
*549 FILLER_0_780
*550 FILLER_0_7804
*551 FILLER_0_7820
*552 FILLER_0_7836
*553 FILLER_0_7852
*554 FILLER_0_7868
*555 FILLER_0_7884
*556 FILLER_0_7900
*557 FILLER_0_7916
*558 FILLER_0_7932
*559 FILLER_0_7948
*560 FILLER_0_796
*561 FILLER_0_7964
*562 FILLER_0_7980
*563 FILLER_0_7996
*564 FILLER_0_80
*565 FILLER_0_8012
*566 FILLER_0_8028
*567 FILLER_0_8044
*568 FILLER_0_8060
*569 FILLER_0_8076
*570 FILLER_0_8092
*571 FILLER_0_8108
*572 FILLER_0_812
*573 FILLER_0_8124
*574 FILLER_0_8140
*575 FILLER_0_8156
*576 FILLER_0_8172
*577 FILLER_0_8188
*578 FILLER_0_8204
*579 FILLER_0_8220
*580 FILLER_0_8236
*581 FILLER_0_8252
*582 FILLER_0_8268
*583 FILLER_0_828
*584 FILLER_0_8284
*585 FILLER_0_8300
*586 FILLER_0_8316
*587 FILLER_0_8332
*588 FILLER_0_8348
*589 FILLER_0_8364
*590 FILLER_0_8380
*591 FILLER_0_8396
*592 FILLER_0_8404
*593 FILLER_0_844
*594 FILLER_0_8460
*595 FILLER_0_8476
*596 FILLER_0_8492
*597 FILLER_0_8508
*598 FILLER_0_8524
*599 FILLER_0_8540
*600 FILLER_0_8556
*601 FILLER_0_8572
*602 FILLER_0_8588
*603 FILLER_0_860
*604 FILLER_0_8604
*605 FILLER_0_8620
*606 FILLER_0_8636
*607 FILLER_0_8652
*608 FILLER_0_8668
*609 FILLER_0_8684
*610 FILLER_0_8700
*611 FILLER_0_8716
*612 FILLER_0_8732
*613 FILLER_0_8748
*614 FILLER_0_876
*615 FILLER_0_8764
*616 FILLER_0_8780
*617 FILLER_0_8796
*618 FILLER_0_8812
*619 FILLER_0_8828
*620 FILLER_0_8844
*621 FILLER_0_8860
*622 FILLER_0_8876
*623 FILLER_0_8892
*624 FILLER_0_8908
*625 FILLER_0_892
*626 FILLER_0_8924
*627 FILLER_0_8940
*628 FILLER_0_8956
*629 FILLER_0_8972
*630 FILLER_0_908
*631 FILLER_0_924
*632 FILLER_0_940
*633 FILLER_0_956
*634 FILLER_0_96
*635 FILLER_0_972
*636 FILLER_0_988
*637 FILLER_10_0
*638 FILLER_10_1008
*639 FILLER_10_1024
*640 FILLER_10_1040
*641 FILLER_10_1056
*642 FILLER_10_1072
*643 FILLER_10_1088
*644 FILLER_10_1104
*645 FILLER_10_112
*646 FILLER_10_1120
*647 FILLER_10_1136
*648 FILLER_10_1152
*649 FILLER_10_1168
*650 FILLER_10_1184
*651 FILLER_10_1200
*652 FILLER_10_1216
*653 FILLER_10_1232
*654 FILLER_10_1248
*655 FILLER_10_1264
*656 FILLER_10_128
*657 FILLER_10_1280
*658 FILLER_10_1296
*659 FILLER_10_1312
*660 FILLER_10_1328
*661 FILLER_10_1344
*662 FILLER_10_1360
*663 FILLER_10_1376
*664 FILLER_10_1392
*665 FILLER_10_1408
*666 FILLER_10_1424
*667 FILLER_10_144
*668 FILLER_10_1440
*669 FILLER_10_1456
*670 FILLER_10_1472
*671 FILLER_10_1488
*672 FILLER_10_1504
*673 FILLER_10_1520
*674 FILLER_10_1536
*675 FILLER_10_1552
*676 FILLER_10_1568
*677 FILLER_10_1584
*678 FILLER_10_16
*679 FILLER_10_160
*680 FILLER_10_1600
*681 FILLER_10_1616
*682 FILLER_10_1632
*683 FILLER_10_1648
*684 FILLER_10_1664
*685 FILLER_10_1680
*686 FILLER_10_1696
*687 FILLER_10_1712
*688 FILLER_10_1728
*689 FILLER_10_1744
*690 FILLER_10_176
*691 FILLER_10_1760
*692 FILLER_10_1776
*693 FILLER_10_1792
*694 FILLER_10_1808
*695 FILLER_10_1824
*696 FILLER_10_1840
*697 FILLER_10_1856
*698 FILLER_10_1872
*699 FILLER_10_1888
*700 FILLER_10_1904
*701 FILLER_10_192
*702 FILLER_10_1920
*703 FILLER_10_1936
*704 FILLER_10_1952
*705 FILLER_10_1968
*706 FILLER_10_1984
*707 FILLER_10_2000
*708 FILLER_10_2016
*709 FILLER_10_2032
*710 FILLER_10_2048
*711 FILLER_10_2064
*712 FILLER_10_208
*713 FILLER_10_2080
*714 FILLER_10_2096
*715 FILLER_10_2112
*716 FILLER_10_2128
*717 FILLER_10_2144
*718 FILLER_10_2160
*719 FILLER_10_2176
*720 FILLER_10_2192
*721 FILLER_10_2208
*722 FILLER_10_2224
*723 FILLER_10_224
*724 FILLER_10_2240
*725 FILLER_10_2256
*726 FILLER_10_2272
*727 FILLER_10_2288
*728 FILLER_10_2304
*729 FILLER_10_2320
*730 FILLER_10_2336
*731 FILLER_10_2352
*732 FILLER_10_2368
*733 FILLER_10_2384
*734 FILLER_10_240
*735 FILLER_10_2400
*736 FILLER_10_2416
*737 FILLER_10_2432
*738 FILLER_10_2448
*739 FILLER_10_2464
*740 FILLER_10_2480
*741 FILLER_10_2496
*742 FILLER_10_2512
*743 FILLER_10_2528
*744 FILLER_10_2544
*745 FILLER_10_256
*746 FILLER_10_2560
*747 FILLER_10_2576
*748 FILLER_10_2592
*749 FILLER_10_2608
*750 FILLER_10_2624
*751 FILLER_10_2640
*752 FILLER_10_2656
*753 FILLER_10_2672
*754 FILLER_10_2688
*755 FILLER_10_2704
*756 FILLER_10_272
*757 FILLER_10_2720
*758 FILLER_10_2736
*759 FILLER_10_2752
*760 FILLER_10_2768
*761 FILLER_10_2784
*762 FILLER_10_2800
*763 FILLER_10_2816
*764 FILLER_10_2832
*765 FILLER_10_2848
*766 FILLER_10_2864
*767 FILLER_10_288
*768 FILLER_10_2880
*769 FILLER_10_2896
*770 FILLER_10_2912
*771 FILLER_10_2928
*772 FILLER_10_2944
*773 FILLER_10_2960
*774 FILLER_10_2976
*775 FILLER_10_2992
*776 FILLER_10_3008
*777 FILLER_10_3024
*778 FILLER_10_304
*779 FILLER_10_3040
*780 FILLER_10_3056
*781 FILLER_10_3072
*782 FILLER_10_3088
*783 FILLER_10_3104
*784 FILLER_10_3120
*785 FILLER_10_3136
*786 FILLER_10_3152
*787 FILLER_10_3168
*788 FILLER_10_3184
*789 FILLER_10_32
*790 FILLER_10_320
*791 FILLER_10_3200
*792 FILLER_10_3216
*793 FILLER_10_3232
*794 FILLER_10_3248
*795 FILLER_10_3264
*796 FILLER_10_3280
*797 FILLER_10_3296
*798 FILLER_10_3312
*799 FILLER_10_3328
*800 FILLER_10_3344
*801 FILLER_10_336
*802 FILLER_10_3360
*803 FILLER_10_3376
*804 FILLER_10_3392
*805 FILLER_10_3408
*806 FILLER_10_3424
*807 FILLER_10_3440
*808 FILLER_10_3456
*809 FILLER_10_3472
*810 FILLER_10_3488
*811 FILLER_10_3504
*812 FILLER_10_352
*813 FILLER_10_3520
*814 FILLER_10_3536
*815 FILLER_10_3552
*816 FILLER_10_3568
*817 FILLER_10_3584
*818 FILLER_10_3600
*819 FILLER_10_3616
*820 FILLER_10_3632
*821 FILLER_10_3648
*822 FILLER_10_3664
*823 FILLER_10_368
*824 FILLER_10_3680
*825 FILLER_10_3696
*826 FILLER_10_3712
*827 FILLER_10_3728
*828 FILLER_10_3744
*829 FILLER_10_3760
*830 FILLER_10_3776
*831 FILLER_10_3792
*832 FILLER_10_3808
*833 FILLER_10_3824
*834 FILLER_10_384
*835 FILLER_10_3840
*836 FILLER_10_3856
*837 FILLER_10_3872
*838 FILLER_10_3888
*839 FILLER_10_3904
*840 FILLER_10_3920
*841 FILLER_10_3936
*842 FILLER_10_3952
*843 FILLER_10_3968
*844 FILLER_10_3984
*845 FILLER_10_400
*846 FILLER_10_4000
*847 FILLER_10_4016
*848 FILLER_10_4032
*849 FILLER_10_4048
*850 FILLER_10_4064
*851 FILLER_10_4080
*852 FILLER_10_4096
*853 FILLER_10_4112
*854 FILLER_10_4128
*855 FILLER_10_4144
*856 FILLER_10_416
*857 FILLER_10_4160
*858 FILLER_10_4176
*859 FILLER_10_4192
*860 FILLER_10_4208
*861 FILLER_10_4224
*862 FILLER_10_4240
*863 FILLER_10_4256
*864 FILLER_10_4272
*865 FILLER_10_4288
*866 FILLER_10_4304
*867 FILLER_10_432
*868 FILLER_10_4320
*869 FILLER_10_4336
*870 FILLER_10_4352
*871 FILLER_10_4368
*872 FILLER_10_4384
*873 FILLER_10_4400
*874 FILLER_10_4416
*875 FILLER_10_4432
*876 FILLER_10_4448
*877 FILLER_10_4464
*878 FILLER_10_448
*879 FILLER_10_4480
*880 FILLER_10_4496
*881 FILLER_10_4512
*882 FILLER_10_4528
*883 FILLER_10_4544
*884 FILLER_10_4560
*885 FILLER_10_4576
*886 FILLER_10_4592
*887 FILLER_10_4608
*888 FILLER_10_4624
*889 FILLER_10_464
*890 FILLER_10_4640
*891 FILLER_10_4656
*892 FILLER_10_4672
*893 FILLER_10_4688
*894 FILLER_10_4704
*895 FILLER_10_4720
*896 FILLER_10_4736
*897 FILLER_10_4752
*898 FILLER_10_4768
*899 FILLER_10_4784
*900 FILLER_10_48
*901 FILLER_10_480
*902 FILLER_10_4800
*903 FILLER_10_4816
*904 FILLER_10_4832
*905 FILLER_10_4848
*906 FILLER_10_4864
*907 FILLER_10_4880
*908 FILLER_10_4896
*909 FILLER_10_4912
*910 FILLER_10_4928
*911 FILLER_10_4944
*912 FILLER_10_496
*913 FILLER_10_4960
*914 FILLER_10_4976
*915 FILLER_10_4992
*916 FILLER_10_5008
*917 FILLER_10_5024
*918 FILLER_10_5040
*919 FILLER_10_5056
*920 FILLER_10_5072
*921 FILLER_10_5088
*922 FILLER_10_5104
*923 FILLER_10_512
*924 FILLER_10_5120
*925 FILLER_10_5136
*926 FILLER_10_5152
*927 FILLER_10_5168
*928 FILLER_10_5184
*929 FILLER_10_5200
*930 FILLER_10_5216
*931 FILLER_10_5232
*932 FILLER_10_5248
*933 FILLER_10_5264
*934 FILLER_10_528
*935 FILLER_10_5280
*936 FILLER_10_5296
*937 FILLER_10_5312
*938 FILLER_10_5328
*939 FILLER_10_5344
*940 FILLER_10_5360
*941 FILLER_10_5376
*942 FILLER_10_5392
*943 FILLER_10_5408
*944 FILLER_10_5424
*945 FILLER_10_544
*946 FILLER_10_5440
*947 FILLER_10_5456
*948 FILLER_10_5472
*949 FILLER_10_5488
*950 FILLER_10_5504
*951 FILLER_10_5520
*952 FILLER_10_5536
*953 FILLER_10_5552
*954 FILLER_10_5568
*955 FILLER_10_5584
*956 FILLER_10_560
*957 FILLER_10_5600
*958 FILLER_10_5616
*959 FILLER_10_5632
*960 FILLER_10_5648
*961 FILLER_10_5664
*962 FILLER_10_5680
*963 FILLER_10_5696
*964 FILLER_10_5712
*965 FILLER_10_5728
*966 FILLER_10_5744
*967 FILLER_10_576
*968 FILLER_10_5760
*969 FILLER_10_5776
*970 FILLER_10_5792
*971 FILLER_10_5808
*972 FILLER_10_5824
*973 FILLER_10_5840
*974 FILLER_10_5856
*975 FILLER_10_5872
*976 FILLER_10_5888
*977 FILLER_10_5904
*978 FILLER_10_592
*979 FILLER_10_5920
*980 FILLER_10_5936
*981 FILLER_10_5952
*982 FILLER_10_5968
*983 FILLER_10_5984
*984 FILLER_10_6000
*985 FILLER_10_6016
*986 FILLER_10_6032
*987 FILLER_10_6048
*988 FILLER_10_6064
*989 FILLER_10_608
*990 FILLER_10_6080
*991 FILLER_10_6096
*992 FILLER_10_6112
*993 FILLER_10_6128
*994 FILLER_10_6144
*995 FILLER_10_6160
*996 FILLER_10_6176
*997 FILLER_10_6192
*998 FILLER_10_6208
*999 FILLER_10_6224
*1000 FILLER_10_624
*1001 FILLER_10_6240
*1002 FILLER_10_6256
*1003 FILLER_10_6272
*1004 FILLER_10_6288
*1005 FILLER_10_6304
*1006 FILLER_10_6320
*1007 FILLER_10_6336
*1008 FILLER_10_6352
*1009 FILLER_10_6368
*1010 FILLER_10_6384
*1011 FILLER_10_64
*1012 FILLER_10_640
*1013 FILLER_10_6400
*1014 FILLER_10_6416
*1015 FILLER_10_6432
*1016 FILLER_10_6448
*1017 FILLER_10_6464
*1018 FILLER_10_6480
*1019 FILLER_10_6496
*1020 FILLER_10_6512
*1021 FILLER_10_6528
*1022 FILLER_10_6544
*1023 FILLER_10_656
*1024 FILLER_10_6560
*1025 FILLER_10_6576
*1026 FILLER_10_6592
*1027 FILLER_10_6608
*1028 FILLER_10_6624
*1029 FILLER_10_6640
*1030 FILLER_10_6656
*1031 FILLER_10_6672
*1032 FILLER_10_6688
*1033 FILLER_10_6704
*1034 FILLER_10_672
*1035 FILLER_10_6720
*1036 FILLER_10_6736
*1037 FILLER_10_6752
*1038 FILLER_10_6768
*1039 FILLER_10_6784
*1040 FILLER_10_6800
*1041 FILLER_10_6816
*1042 FILLER_10_6832
*1043 FILLER_10_6848
*1044 FILLER_10_6864
*1045 FILLER_10_688
*1046 FILLER_10_6880
*1047 FILLER_10_6896
*1048 FILLER_10_6912
*1049 FILLER_10_6928
*1050 FILLER_10_6944
*1051 FILLER_10_6960
*1052 FILLER_10_6976
*1053 FILLER_10_6992
*1054 FILLER_10_7008
*1055 FILLER_10_7024
*1056 FILLER_10_704
*1057 FILLER_10_7040
*1058 FILLER_10_7056
*1059 FILLER_10_7072
*1060 FILLER_10_7088
*1061 FILLER_10_7104
*1062 FILLER_10_7120
*1063 FILLER_10_7136
*1064 FILLER_10_7152
*1065 FILLER_10_7168
*1066 FILLER_10_7184
*1067 FILLER_10_720
*1068 FILLER_10_7200
*1069 FILLER_10_7216
*1070 FILLER_10_7232
*1071 FILLER_10_7248
*1072 FILLER_10_7264
*1073 FILLER_10_7280
*1074 FILLER_10_7296
*1075 FILLER_10_7312
*1076 FILLER_10_7328
*1077 FILLER_10_7344
*1078 FILLER_10_736
*1079 FILLER_10_7360
*1080 FILLER_10_7376
*1081 FILLER_10_7392
*1082 FILLER_10_7408
*1083 FILLER_10_7424
*1084 FILLER_10_7440
*1085 FILLER_10_7456
*1086 FILLER_10_7472
*1087 FILLER_10_7488
*1088 FILLER_10_7504
*1089 FILLER_10_752
*1090 FILLER_10_7520
*1091 FILLER_10_7536
*1092 FILLER_10_7552
*1093 FILLER_10_7568
*1094 FILLER_10_7584
*1095 FILLER_10_7600
*1096 FILLER_10_7616
*1097 FILLER_10_7632
*1098 FILLER_10_7648
*1099 FILLER_10_7664
*1100 FILLER_10_768
*1101 FILLER_10_7680
*1102 FILLER_10_7696
*1103 FILLER_10_7712
*1104 FILLER_10_7728
*1105 FILLER_10_7744
*1106 FILLER_10_7760
*1107 FILLER_10_7776
*1108 FILLER_10_7792
*1109 FILLER_10_7808
*1110 FILLER_10_7824
*1111 FILLER_10_784
*1112 FILLER_10_7840
*1113 FILLER_10_7856
*1114 FILLER_10_7872
*1115 FILLER_10_7888
*1116 FILLER_10_7904
*1117 FILLER_10_7920
*1118 FILLER_10_7936
*1119 FILLER_10_7952
*1120 FILLER_10_7968
*1121 FILLER_10_7984
*1122 FILLER_10_80
*1123 FILLER_10_800
*1124 FILLER_10_8000
*1125 FILLER_10_8016
*1126 FILLER_10_8032
*1127 FILLER_10_8048
*1128 FILLER_10_8064
*1129 FILLER_10_8080
*1130 FILLER_10_8096
*1131 FILLER_10_8112
*1132 FILLER_10_8128
*1133 FILLER_10_8144
*1134 FILLER_10_816
*1135 FILLER_10_8160
*1136 FILLER_10_8176
*1137 FILLER_10_8192
*1138 FILLER_10_8208
*1139 FILLER_10_8224
*1140 FILLER_10_8240
*1141 FILLER_10_8256
*1142 FILLER_10_8272
*1143 FILLER_10_8288
*1144 FILLER_10_8304
*1145 FILLER_10_832
*1146 FILLER_10_8320
*1147 FILLER_10_8336
*1148 FILLER_10_8352
*1149 FILLER_10_8368
*1150 FILLER_10_8384
*1151 FILLER_10_8400
*1152 FILLER_10_8416
*1153 FILLER_10_8432
*1154 FILLER_10_8448
*1155 FILLER_10_8464
*1156 FILLER_10_848
*1157 FILLER_10_8480
*1158 FILLER_10_8496
*1159 FILLER_10_8512
*1160 FILLER_10_8528
*1161 FILLER_10_8544
*1162 FILLER_10_8560
*1163 FILLER_10_8576
*1164 FILLER_10_8592
*1165 FILLER_10_8608
*1166 FILLER_10_8624
*1167 FILLER_10_864
*1168 FILLER_10_8640
*1169 FILLER_10_8656
*1170 FILLER_10_8672
*1171 FILLER_10_8688
*1172 FILLER_10_8704
*1173 FILLER_10_8720
*1174 FILLER_10_8736
*1175 FILLER_10_8752
*1176 FILLER_10_8768
*1177 FILLER_10_8784
*1178 FILLER_10_880
*1179 FILLER_10_8800
*1180 FILLER_10_8816
*1181 FILLER_10_8832
*1182 FILLER_10_8848
*1183 FILLER_10_8864
*1184 FILLER_10_8880
*1185 FILLER_10_8896
*1186 FILLER_10_8912
*1187 FILLER_10_8928
*1188 FILLER_10_8944
*1189 FILLER_10_896
*1190 FILLER_10_8960
*1191 FILLER_10_912
*1192 FILLER_10_928
*1193 FILLER_10_944
*1194 FILLER_10_96
*1195 FILLER_10_960
*1196 FILLER_10_976
*1197 FILLER_10_992
*1198 FILLER_11_0
*1199 FILLER_11_1008
*1200 FILLER_11_1024
*1201 FILLER_11_1040
*1202 FILLER_11_1056
*1203 FILLER_11_1072
*1204 FILLER_11_1088
*1205 FILLER_11_1104
*1206 FILLER_11_112
*1207 FILLER_11_1120
*1208 FILLER_11_1136
*1209 FILLER_11_1152
*1210 FILLER_11_1168
*1211 FILLER_11_1184
*1212 FILLER_11_1200
*1213 FILLER_11_1216
*1214 FILLER_11_1232
*1215 FILLER_11_1248
*1216 FILLER_11_1264
*1217 FILLER_11_128
*1218 FILLER_11_1280
*1219 FILLER_11_1296
*1220 FILLER_11_1312
*1221 FILLER_11_1328
*1222 FILLER_11_1344
*1223 FILLER_11_1360
*1224 FILLER_11_1376
*1225 FILLER_11_1392
*1226 FILLER_11_1408
*1227 FILLER_11_1424
*1228 FILLER_11_144
*1229 FILLER_11_1440
*1230 FILLER_11_1456
*1231 FILLER_11_1472
*1232 FILLER_11_1488
*1233 FILLER_11_1504
*1234 FILLER_11_1520
*1235 FILLER_11_1536
*1236 FILLER_11_1552
*1237 FILLER_11_1568
*1238 FILLER_11_1584
*1239 FILLER_11_16
*1240 FILLER_11_160
*1241 FILLER_11_1600
*1242 FILLER_11_1616
*1243 FILLER_11_1632
*1244 FILLER_11_1648
*1245 FILLER_11_1664
*1246 FILLER_11_1680
*1247 FILLER_11_1696
*1248 FILLER_11_1712
*1249 FILLER_11_1728
*1250 FILLER_11_1744
*1251 FILLER_11_176
*1252 FILLER_11_1760
*1253 FILLER_11_1776
*1254 FILLER_11_1792
*1255 FILLER_11_1808
*1256 FILLER_11_1824
*1257 FILLER_11_1840
*1258 FILLER_11_1856
*1259 FILLER_11_1872
*1260 FILLER_11_1888
*1261 FILLER_11_1904
*1262 FILLER_11_192
*1263 FILLER_11_1920
*1264 FILLER_11_1936
*1265 FILLER_11_1952
*1266 FILLER_11_1968
*1267 FILLER_11_1984
*1268 FILLER_11_2000
*1269 FILLER_11_2016
*1270 FILLER_11_2032
*1271 FILLER_11_2048
*1272 FILLER_11_2064
*1273 FILLER_11_208
*1274 FILLER_11_2080
*1275 FILLER_11_2096
*1276 FILLER_11_2112
*1277 FILLER_11_2128
*1278 FILLER_11_2144
*1279 FILLER_11_2160
*1280 FILLER_11_2176
*1281 FILLER_11_2192
*1282 FILLER_11_2208
*1283 FILLER_11_2224
*1284 FILLER_11_224
*1285 FILLER_11_2240
*1286 FILLER_11_2256
*1287 FILLER_11_2272
*1288 FILLER_11_2288
*1289 FILLER_11_2304
*1290 FILLER_11_2320
*1291 FILLER_11_2336
*1292 FILLER_11_2352
*1293 FILLER_11_2368
*1294 FILLER_11_2384
*1295 FILLER_11_240
*1296 FILLER_11_2400
*1297 FILLER_11_2416
*1298 FILLER_11_2432
*1299 FILLER_11_2448
*1300 FILLER_11_2464
*1301 FILLER_11_2480
*1302 FILLER_11_2496
*1303 FILLER_11_2512
*1304 FILLER_11_2528
*1305 FILLER_11_2544
*1306 FILLER_11_256
*1307 FILLER_11_2560
*1308 FILLER_11_2576
*1309 FILLER_11_2592
*1310 FILLER_11_2608
*1311 FILLER_11_2624
*1312 FILLER_11_2640
*1313 FILLER_11_2656
*1314 FILLER_11_2672
*1315 FILLER_11_2688
*1316 FILLER_11_2704
*1317 FILLER_11_272
*1318 FILLER_11_2720
*1319 FILLER_11_2736
*1320 FILLER_11_2752
*1321 FILLER_11_2768
*1322 FILLER_11_2784
*1323 FILLER_11_2800
*1324 FILLER_11_2816
*1325 FILLER_11_2832
*1326 FILLER_11_2848
*1327 FILLER_11_2864
*1328 FILLER_11_288
*1329 FILLER_11_2880
*1330 FILLER_11_2896
*1331 FILLER_11_2912
*1332 FILLER_11_2928
*1333 FILLER_11_2944
*1334 FILLER_11_2960
*1335 FILLER_11_2976
*1336 FILLER_11_2992
*1337 FILLER_11_3008
*1338 FILLER_11_3024
*1339 FILLER_11_304
*1340 FILLER_11_3040
*1341 FILLER_11_3056
*1342 FILLER_11_3072
*1343 FILLER_11_3088
*1344 FILLER_11_3104
*1345 FILLER_11_3120
*1346 FILLER_11_3136
*1347 FILLER_11_3152
*1348 FILLER_11_3168
*1349 FILLER_11_3184
*1350 FILLER_11_32
*1351 FILLER_11_320
*1352 FILLER_11_3200
*1353 FILLER_11_3216
*1354 FILLER_11_3232
*1355 FILLER_11_3248
*1356 FILLER_11_3264
*1357 FILLER_11_3280
*1358 FILLER_11_3296
*1359 FILLER_11_3312
*1360 FILLER_11_3328
*1361 FILLER_11_3344
*1362 FILLER_11_336
*1363 FILLER_11_3360
*1364 FILLER_11_3376
*1365 FILLER_11_3392
*1366 FILLER_11_3408
*1367 FILLER_11_3424
*1368 FILLER_11_3440
*1369 FILLER_11_3456
*1370 FILLER_11_3472
*1371 FILLER_11_3488
*1372 FILLER_11_3504
*1373 FILLER_11_352
*1374 FILLER_11_3520
*1375 FILLER_11_3536
*1376 FILLER_11_3552
*1377 FILLER_11_3568
*1378 FILLER_11_3584
*1379 FILLER_11_3600
*1380 FILLER_11_3616
*1381 FILLER_11_3632
*1382 FILLER_11_3648
*1383 FILLER_11_3664
*1384 FILLER_11_368
*1385 FILLER_11_3680
*1386 FILLER_11_3696
*1387 FILLER_11_3712
*1388 FILLER_11_3728
*1389 FILLER_11_3744
*1390 FILLER_11_3760
*1391 FILLER_11_3776
*1392 FILLER_11_3792
*1393 FILLER_11_3808
*1394 FILLER_11_3824
*1395 FILLER_11_384
*1396 FILLER_11_3840
*1397 FILLER_11_3856
*1398 FILLER_11_3872
*1399 FILLER_11_3888
*1400 FILLER_11_3904
*1401 FILLER_11_3920
*1402 FILLER_11_3936
*1403 FILLER_11_3952
*1404 FILLER_11_3968
*1405 FILLER_11_3984
*1406 FILLER_11_400
*1407 FILLER_11_4000
*1408 FILLER_11_4016
*1409 FILLER_11_4032
*1410 FILLER_11_4048
*1411 FILLER_11_4064
*1412 FILLER_11_4080
*1413 FILLER_11_4096
*1414 FILLER_11_4112
*1415 FILLER_11_4128
*1416 FILLER_11_4144
*1417 FILLER_11_416
*1418 FILLER_11_4160
*1419 FILLER_11_4176
*1420 FILLER_11_4192
*1421 FILLER_11_4208
*1422 FILLER_11_4224
*1423 FILLER_11_4240
*1424 FILLER_11_4256
*1425 FILLER_11_4272
*1426 FILLER_11_4288
*1427 FILLER_11_4304
*1428 FILLER_11_432
*1429 FILLER_11_4320
*1430 FILLER_11_4336
*1431 FILLER_11_4352
*1432 FILLER_11_4368
*1433 FILLER_11_4384
*1434 FILLER_11_4400
*1435 FILLER_11_4416
*1436 FILLER_11_4432
*1437 FILLER_11_4448
*1438 FILLER_11_4464
*1439 FILLER_11_448
*1440 FILLER_11_4480
*1441 FILLER_11_4496
*1442 FILLER_11_4512
*1443 FILLER_11_4528
*1444 FILLER_11_4544
*1445 FILLER_11_4560
*1446 FILLER_11_4576
*1447 FILLER_11_4592
*1448 FILLER_11_4608
*1449 FILLER_11_4624
*1450 FILLER_11_464
*1451 FILLER_11_4640
*1452 FILLER_11_4656
*1453 FILLER_11_4672
*1454 FILLER_11_4688
*1455 FILLER_11_4704
*1456 FILLER_11_4720
*1457 FILLER_11_4736
*1458 FILLER_11_4752
*1459 FILLER_11_4768
*1460 FILLER_11_4784
*1461 FILLER_11_48
*1462 FILLER_11_480
*1463 FILLER_11_4800
*1464 FILLER_11_4816
*1465 FILLER_11_4832
*1466 FILLER_11_4848
*1467 FILLER_11_4864
*1468 FILLER_11_4880
*1469 FILLER_11_4896
*1470 FILLER_11_4912
*1471 FILLER_11_4928
*1472 FILLER_11_4944
*1473 FILLER_11_496
*1474 FILLER_11_4960
*1475 FILLER_11_4976
*1476 FILLER_11_4992
*1477 FILLER_11_5008
*1478 FILLER_11_5024
*1479 FILLER_11_5040
*1480 FILLER_11_5056
*1481 FILLER_11_5072
*1482 FILLER_11_5088
*1483 FILLER_11_5104
*1484 FILLER_11_512
*1485 FILLER_11_5120
*1486 FILLER_11_5136
*1487 FILLER_11_5152
*1488 FILLER_11_5168
*1489 FILLER_11_5184
*1490 FILLER_11_5200
*1491 FILLER_11_5216
*1492 FILLER_11_5232
*1493 FILLER_11_5248
*1494 FILLER_11_5264
*1495 FILLER_11_528
*1496 FILLER_11_5280
*1497 FILLER_11_5296
*1498 FILLER_11_5312
*1499 FILLER_11_5328
*1500 FILLER_11_5344
*1501 FILLER_11_5360
*1502 FILLER_11_5376
*1503 FILLER_11_5392
*1504 FILLER_11_5408
*1505 FILLER_11_5424
*1506 FILLER_11_544
*1507 FILLER_11_5440
*1508 FILLER_11_5456
*1509 FILLER_11_5472
*1510 FILLER_11_5488
*1511 FILLER_11_5504
*1512 FILLER_11_5520
*1513 FILLER_11_5536
*1514 FILLER_11_5552
*1515 FILLER_11_5568
*1516 FILLER_11_5584
*1517 FILLER_11_560
*1518 FILLER_11_5600
*1519 FILLER_11_5616
*1520 FILLER_11_5632
*1521 FILLER_11_5648
*1522 FILLER_11_5664
*1523 FILLER_11_5680
*1524 FILLER_11_5696
*1525 FILLER_11_5712
*1526 FILLER_11_5728
*1527 FILLER_11_5744
*1528 FILLER_11_576
*1529 FILLER_11_5760
*1530 FILLER_11_5776
*1531 FILLER_11_5792
*1532 FILLER_11_5808
*1533 FILLER_11_5824
*1534 FILLER_11_5840
*1535 FILLER_11_5856
*1536 FILLER_11_5872
*1537 FILLER_11_5888
*1538 FILLER_11_5904
*1539 FILLER_11_592
*1540 FILLER_11_5920
*1541 FILLER_11_5936
*1542 FILLER_11_5952