*SPEF "ieee 1481-1999"
*DESIGN "ffra"
*DATE "11:11:11 Fri 11 11, 1111"
*VENDOR "OpenRCX"
*PROGRAM "Parallel Extraction"
*VERSION "1.0"
*DESIGN_FLOW "NAME_SCOPE LOCAL" "PIN_CAP NONE"
*DIVIDER /
*DELIMITER :
*BUS_DELIMITER []
*T_UNIT 1 NS
*C_UNIT 1 PF
*R_UNIT 1 OHM
*L_UNIT 1 HENRY

*NAME_MAP
*1 a[0]
*2 a[1]
*3 a[2]
*4 a[3]
*5 a[4]
*6 a[5]
*7 a[6]
*8 a[7]
*9 b[0]
*10 b[1]
*11 b[2]
*12 b[3]
*13 b[4]
*14 b[5]
*15 b[6]
*16 b[7]
*17 ci[0]
*18 ci[10]
*19 ci[11]
*20 ci[12]
*21 ci[13]
*22 ci[14]
*23 ci[15]
*24 ci[1]
*25 ci[2]
*26 ci[3]
*27 ci[4]
*28 ci[5]
*29 ci[6]
*30 ci[7]
*31 ci[8]
*32 ci[9]
*33 clk
*34 o[0]
*35 o[10]
*36 o[11]
*37 o[12]
*38 o[13]
*39 o[14]
*40 o[15]
*41 o[1]
*42 o[2]
*43 o[3]
*44 o[4]
*45 o[5]
*46 o[6]
*47 o[7]
*48 o[8]
*49 o[9]
*50 rst
*53 _0000_
*54 _0001_
*55 _0002_
*56 _0003_
*57 _0004_
*58 _0005_
*59 _0006_
*60 _0007_
*61 _0008_
*62 _0009_
*63 _0010_
*64 _0011_
*65 _0012_
*66 _0013_
*67 _0014_
*68 _0015_
*69 _0016_
*70 _0017_
*71 _0018_
*72 _0019_
*73 _0020_
*74 _0021_
*75 _0022_
*76 _0023_
*77 _0024_
*78 _0025_
*79 _0026_
*80 _0027_
*81 _0028_
*82 _0029_
*83 _0030_
*84 _0031_
*85 _0032_
*86 _0033_
*87 _0034_
*88 _0035_
*89 _0036_
*90 _0037_
*91 _0038_
*92 _0039_
*93 _0040_
*94 _0041_
*95 _0042_
*96 _0043_
*97 _0044_
*98 _0045_
*99 _0046_
*100 _0047_
*101 _0048_
*102 _0049_
*103 _0050_
*104 _0051_
*105 _0052_
*106 _0053_
*107 _0054_
*108 _0055_
*109 _0056_
*110 _0057_
*111 _0058_
*112 _0059_
*113 _0060_
*114 _0061_
*115 _0062_
*116 _0063_
*117 _0064_
*118 _0065_
*119 _0066_
*120 _0067_
*121 _0068_
*122 _0069_
*123 _0070_
*124 _0071_
*125 _0072_
*126 _0073_
*127 _0074_
*128 _0075_
*129 _0076_
*130 _0077_
*131 _0078_
*132 _0079_
*133 _0080_
*134 _0081_
*135 _0082_
*136 _0083_
*137 _0084_
*138 _0085_
*139 _0086_
*140 _0087_
*141 _0088_
*142 _0089_
*143 _0090_
*144 _0091_
*145 _0092_
*146 _0093_
*147 _0094_
*148 _0095_
*149 _0096_
*150 _0097_
*151 _0098_
*152 _0099_
*153 _0100_
*154 _0101_
*155 _0102_
*156 _0103_
*157 _0104_
*158 _0105_
*159 _0106_
*160 _0107_
*161 _0108_
*162 _0109_
*163 _0110_
*164 _0111_
*165 _0112_
*166 _0113_
*167 _0114_
*168 _0115_
*169 _0116_
*170 _0117_
*171 _0118_
*172 _0119_
*173 _0120_
*174 _0121_
*175 _0122_
*176 _0123_
*177 _0124_
*178 _0125_
*179 _0126_
*180 _0127_
*181 _0128_
*182 _0129_
*183 _0130_
*184 _0131_
*185 _0132_
*186 _0133_
*187 _0134_
*188 _0135_
*189 _0136_
*190 _0137_
*191 _0138_
*192 _0139_
*193 _0140_
*194 _0141_
*195 _0142_
*196 _0143_
*197 _0144_
*198 _0145_
*199 _0146_
*200 _0147_
*201 _0148_
*202 _0149_
*203 _0150_
*204 _0151_
*205 _0152_
*206 _0153_
*207 _0154_
*208 _0155_
*209 _0156_
*210 _0157_
*211 _0158_
*212 _0159_
*213 _0160_
*214 _0161_
*215 _0162_
*216 _0163_
*217 _0164_
*218 _0165_
*219 _0166_
*220 _0167_
*221 _0168_
*222 _0169_
*223 _0170_
*224 _0171_
*225 _0172_
*226 _0173_
*227 _0174_
*228 _0175_
*229 _0176_
*230 _0177_
*231 _0178_
*232 _0179_
*233 _0180_
*234 _0181_
*235 _0182_
*236 _0183_
*237 _0184_
*238 _0185_
*239 _0186_
*240 _0187_
*241 _0188_
*242 _0189_
*243 _0190_
*244 _0191_
*245 _0192_
*246 _0193_
*247 _0194_
*248 _0195_
*249 _0196_
*250 _0197_
*251 _0198_
*252 _0199_
*253 _0200_
*254 _0201_
*255 _0202_
*256 _0203_
*257 _0204_
*258 _0205_
*259 _0206_
*260 _0207_
*261 _0208_
*262 _0209_
*263 _0210_
*264 _0211_
*265 _0212_
*266 _0213_
*267 _0214_
*268 _0215_
*269 _0216_
*270 _0217_
*271 _0218_
*272 _0219_
*273 _0220_
*274 _0221_
*275 _0222_
*276 _0223_
*277 _0224_
*278 _0225_
*279 _0226_
*280 _0227_
*281 _0228_
*282 _0229_
*283 _0230_
*284 _0231_
*285 _0232_
*286 _0233_
*287 _0234_
*288 _0235_
*289 _0236_
*290 _0237_
*291 _0238_
*292 _0239_
*293 _0240_
*294 _0241_
*295 _0242_
*296 _0243_
*297 _0244_
*298 _0245_
*299 _0246_
*300 _0247_
*301 _0248_
*302 _0249_
*303 _0250_
*304 _0251_
*305 _0252_
*306 _0253_
*307 _0254_
*308 _0255_
*309 _0256_
*310 _0257_
*311 _0258_
*312 _0259_
*313 _0260_
*314 _0261_
*315 _0262_
*316 _0263_
*317 _0264_
*318 _0265_
*319 _0266_
*320 _0267_
*321 _0268_
*322 _0269_
*323 _0270_
*324 _0271_
*325 _0272_
*326 _0273_
*327 _0274_
*328 _0275_
*329 _0276_
*330 _0277_
*331 _0278_
*332 _0279_
*333 _0280_
*334 _0281_
*335 _0282_
*336 _0283_
*337 _0284_
*338 _0285_
*339 _0286_
*340 _0287_
*341 _0288_
*342 _0289_
*343 _0290_
*344 _0291_
*345 _0292_
*346 _0293_
*347 _0294_
*348 _0295_
*349 _0296_
*350 _0297_
*351 _0298_
*352 _0299_
*353 _0300_
*354 _0301_
*355 _0302_
*356 _0303_
*357 _0304_
*358 _0305_
*359 _0306_
*360 _0307_
*361 _0308_
*362 _0309_
*363 _0310_
*364 _0311_
*365 _0312_
*366 _0313_
*367 _0314_
*368 _0315_
*369 _0316_
*370 _0317_
*371 _0318_
*372 _0319_
*373 _0320_
*374 _0321_
*375 _0322_
*376 _0323_
*377 _0324_
*378 _0325_
*379 _0326_
*380 _0327_
*381 _0328_
*382 _0329_
*383 _0330_
*384 _0331_
*385 _0332_
*386 _0333_
*387 _0334_
*388 _0335_
*389 _0336_
*390 _0337_
*391 _0338_
*392 _0339_
*393 _0340_
*394 _0341_
*395 _0342_
*396 _0343_
*397 _0344_
*398 _0345_
*399 _0346_
*400 _0347_
*401 _0348_
*402 _0349_
*403 _0350_
*404 _0351_
*405 _0352_
*406 _0353_
*407 _0354_
*408 _0355_
*409 _0356_
*410 _0357_
*411 _0358_
*412 _0359_
*413 _0360_
*414 _0361_
*415 _0362_
*416 _0363_
*417 _0364_
*418 _0365_
*419 _0366_
*420 _0367_
*421 _0368_
*422 _0369_
*423 _0370_
*424 _0371_
*425 _0372_
*426 _0373_
*427 _0374_
*428 _0375_
*429 _0376_
*430 _0377_
*431 _0378_
*432 _0379_
*433 _0380_
*434 _0381_
*435 _0382_
*436 _0383_
*437 _0384_
*438 _0385_
*439 _0386_
*440 _0387_
*441 _0388_
*442 _0389_
*443 _0390_
*444 _0391_
*445 _0392_
*446 _0393_
*447 _0394_
*448 _0395_
*449 _0396_
*450 _0397_
*451 _0398_
*452 _0399_
*453 _0400_
*454 _0401_
*455 _0402_
*456 _0403_
*457 _0404_
*458 _0405_
*459 _0406_
*460 _0407_
*461 _0408_
*462 _0409_
*463 _0410_
*464 _0411_
*465 _0412_
*466 _0413_
*467 _0414_
*468 _0415_
*469 _0416_
*470 _0417_
*471 _0418_
*472 _0419_
*473 _0420_
*474 _0421_
*475 _0422_
*476 _0423_
*477 _0424_
*478 _0425_
*479 _0426_
*480 _0427_
*481 _0428_
*482 _0429_
*483 _0430_
*484 _0431_
*485 _0432_
*486 _0433_
*487 _0434_
*488 _0435_
*489 _0436_
*490 _0437_
*491 _0438_
*492 _0439_
*493 _0440_
*494 _0441_
*495 _0442_
*496 _0443_
*497 _0444_
*498 _0445_
*499 _0446_
*500 _0447_
*501 _0448_
*502 _0449_
*503 _0450_
*504 _0451_
*505 _0452_
*506 _0453_
*507 _0454_
*508 _0455_
*509 _0456_
*510 _0457_
*511 _0458_
*512 _0459_
*513 _0460_
*514 _0461_
*515 _0462_
*516 _0463_
*517 _0464_
*518 _0465_
*519 _0466_
*520 _0467_
*521 _0468_
*522 _0469_
*523 _0470_
*524 _0471_
*525 _0472_
*526 _0473_
*527 _0474_
*528 _0475_
*529 _0476_
*530 _0477_
*531 _0478_
*532 _0479_
*533 _0480_
*534 _0481_
*535 _0482_
*536 _0483_
*537 _0484_
*538 _0485_
*539 _0486_
*540 _0487_
*541 _0488_
*542 _0489_
*543 _0490_
*544 _0491_
*545 _0492_
*546 _0493_
*547 _0494_
*548 _0495_
*549 _0496_
*550 _0497_
*551 _0498_
*552 _0499_
*553 _0500_
*554 _0501_
*555 _0502_
*556 _0503_
*557 _0504_
*558 _0505_
*559 _0506_
*560 _0507_
*561 _0508_
*562 _0509_
*563 _0510_
*564 _0511_
*565 _0512_
*566 _0513_
*567 _0514_
*568 _0515_
*569 _0516_
*570 _0517_
*571 _0518_
*572 _0519_
*573 _0520_
*574 _0521_
*575 net1
*576 net10
*577 net11
*578 net12
*579 net13
*580 net14
*581 net15
*582 net16
*583 net17
*584 net18
*585 net19
*586 net2
*587 net20
*588 net21
*589 net22
*590 net23
*591 net24
*592 net25
*593 net26
*594 net27
*595 net28
*596 net29
*597 net3
*598 net30
*599 net31
*600 net32
*601 net33
*602 net34
*603 net35
*604 net36
*605 net37
*606 net38
*607 net39
*608 net4
*609 net40
*610 net41
*611 net42
*612 net43
*613 net44
*614 net45
*615 net46
*616 net47
*617 net48
*618 net49
*619 net5
*620 net50
*621 net51
*622 net52
*623 net53
*624 net54
*625 net55
*626 net56
*627 net57
*628 net58
*629 net59
*630 net6
*631 net60
*632 net61
*633 net62
*634 net63
*635 net64
*636 net65
*637 net66
*638 net67
*639 net68
*640 net69
*641 net7
*642 net70
*643 net71
*644 net72
*645 net73
*646 net74
*647 net75
*648 net76
*649 net77
*650 net78
*651 net8
*652 net9
*653 o_tmp\[0\]\[0\]
*654 o_tmp\[0\]\[10\]
*655 o_tmp\[0\]\[11\]
*656 o_tmp\[0\]\[12\]
*657 o_tmp\[0\]\[13\]
*658 o_tmp\[0\]\[14\]
*659 o_tmp\[0\]\[15\]
*660 o_tmp\[0\]\[1\]
*661 o_tmp\[0\]\[2\]
*662 o_tmp\[0\]\[3\]
*663 o_tmp\[0\]\[4\]
*664 o_tmp\[0\]\[5\]
*665 o_tmp\[0\]\[6\]
*666 o_tmp\[0\]\[7\]
*667 o_tmp\[0\]\[8\]
*668 o_tmp\[0\]\[9\]
*669 o_tmp\[1\]\[0\]
*670 o_tmp\[1\]\[10\]
*671 o_tmp\[1\]\[11\]
*672 o_tmp\[1\]\[12\]
*673 o_tmp\[1\]\[13\]
*674 o_tmp\[1\]\[14\]
*675 o_tmp\[1\]\[15\]
*676 o_tmp\[1\]\[1\]
*677 o_tmp\[1\]\[2\]
*678 o_tmp\[1\]\[3\]
*679 o_tmp\[1\]\[4\]
*680 o_tmp\[1\]\[5\]
*681 o_tmp\[1\]\[6\]
*682 o_tmp\[1\]\[7\]
*683 o_tmp\[1\]\[8\]
*684 o_tmp\[1\]\[9\]
*685 o_tmp\[2\]\[0\]
*686 o_tmp\[2\]\[10\]
*687 o_tmp\[2\]\[11\]
*688 o_tmp\[2\]\[12\]
*689 o_tmp\[2\]\[13\]
*690 o_tmp\[2\]\[14\]
*691 o_tmp\[2\]\[15\]
*692 o_tmp\[2\]\[1\]
*693 o_tmp\[2\]\[2\]
*694 o_tmp\[2\]\[3\]
*695 o_tmp\[2\]\[4\]
*696 o_tmp\[2\]\[5\]
*697 o_tmp\[2\]\[6\]
*698 o_tmp\[2\]\[7\]
*699 o_tmp\[2\]\[8\]
*700 o_tmp\[2\]\[9\]
*701 FILLER_0_0
*702 FILLER_0_1014
*703 FILLER_0_1030
*704 FILLER_0_1046
*705 FILLER_0_1062
*706 FILLER_0_1078
*707 FILLER_0_1094
*708 FILLER_0_1110
*709 FILLER_0_112
*710 FILLER_0_1126
*711 FILLER_0_1142
*712 FILLER_0_1158
*713 FILLER_0_1174
*714 FILLER_0_1190
*715 FILLER_0_1206
*716 FILLER_0_1222
*717 FILLER_0_1238
*718 FILLER_0_1242
*719 FILLER_0_1244
*720 FILLER_0_128
*721 FILLER_0_1291
*722 FILLER_0_1307
*723 FILLER_0_1323
*724 FILLER_0_1339
*725 FILLER_0_1355
*726 FILLER_0_1371
*727 FILLER_0_1387
*728 FILLER_0_1403
*729 FILLER_0_1419
*730 FILLER_0_1435
*731 FILLER_0_144
*732 FILLER_0_1451
*733 FILLER_0_1467
*734 FILLER_0_1483
*735 FILLER_0_1499
*736 FILLER_0_1515
*737 FILLER_0_1531
*738 FILLER_0_1547
*739 FILLER_0_1563
*740 FILLER_0_1579
*741 FILLER_0_1595
*742 FILLER_0_16
*743 FILLER_0_160
*744 FILLER_0_1611
*745 FILLER_0_1627
*746 FILLER_0_1643
*747 FILLER_0_1659
*748 FILLER_0_1675
*749 FILLER_0_1691
*750 FILLER_0_1707
*751 FILLER_0_1723
*752 FILLER_0_1739
*753 FILLER_0_1743
*754 FILLER_0_176
*755 FILLER_0_1790
*756 FILLER_0_1806
*757 FILLER_0_1822
*758 FILLER_0_1838
*759 FILLER_0_1854
*760 FILLER_0_1870
*761 FILLER_0_1886
*762 FILLER_0_1902
*763 FILLER_0_1918
*764 FILLER_0_192
*765 FILLER_0_1934
*766 FILLER_0_1950
*767 FILLER_0_1966
*768 FILLER_0_1982
*769 FILLER_0_1998
*770 FILLER_0_2014
*771 FILLER_0_2030
*772 FILLER_0_2046
*773 FILLER_0_2062
*774 FILLER_0_2078
*775 FILLER_0_208
*776 FILLER_0_2094
*777 FILLER_0_2110
*778 FILLER_0_2126
*779 FILLER_0_2142
*780 FILLER_0_2158
*781 FILLER_0_2174
*782 FILLER_0_2190
*783 FILLER_0_2206
*784 FILLER_0_2222
*785 FILLER_0_2238
*786 FILLER_0_224
*787 FILLER_0_2288
*788 FILLER_0_2304
*789 FILLER_0_2320
*790 FILLER_0_2336
*791 FILLER_0_2352
*792 FILLER_0_2368
*793 FILLER_0_2384
*794 FILLER_0_240
*795 FILLER_0_2400
*796 FILLER_0_2416
*797 FILLER_0_2432
*798 FILLER_0_2448
*799 FILLER_0_2464
*800 FILLER_0_2480
*801 FILLER_0_2496
*802 FILLER_0_2512
*803 FILLER_0_2528
*804 FILLER_0_2544
*805 FILLER_0_2560
*806 FILLER_0_2576
*807 FILLER_0_2592
*808 FILLER_0_2608
*809 FILLER_0_2624
*810 FILLER_0_2640
*811 FILLER_0_2656
*812 FILLER_0_2672
*813 FILLER_0_2688
*814 FILLER_0_2704
*815 FILLER_0_2720
*816 FILLER_0_2736
*817 FILLER_0_2786
*818 FILLER_0_2802
*819 FILLER_0_2818
*820 FILLER_0_2834
*821 FILLER_0_2850
*822 FILLER_0_2866
*823 FILLER_0_2882
*824 FILLER_0_2898
*825 FILLER_0_2914
*826 FILLER_0_2930
*827 FILLER_0_294
*828 FILLER_0_2946
*829 FILLER_0_2962
*830 FILLER_0_2978
*831 FILLER_0_2994
*832 FILLER_0_3010
*833 FILLER_0_3026
*834 FILLER_0_3042
*835 FILLER_0_3058
*836 FILLER_0_3074
*837 FILLER_0_3090
*838 FILLER_0_310
*839 FILLER_0_3106
*840 FILLER_0_3122
*841 FILLER_0_3138
*842 FILLER_0_3154
*843 FILLER_0_3170
*844 FILLER_0_3186
*845 FILLER_0_32
*846 FILLER_0_3202
*847 FILLER_0_3218
*848 FILLER_0_3234
*849 FILLER_0_3238
*850 FILLER_0_326
*851 FILLER_0_3285
*852 FILLER_0_3301
*853 FILLER_0_3317
*854 FILLER_0_3333
*855 FILLER_0_3349
*856 FILLER_0_3365
*857 FILLER_0_3381
*858 FILLER_0_3397
*859 FILLER_0_3413
*860 FILLER_0_342
*861 FILLER_0_3429
*862 FILLER_0_3445
*863 FILLER_0_3461
*864 FILLER_0_3477
*865 FILLER_0_3493
*866 FILLER_0_3509
*867 FILLER_0_3525
*868 FILLER_0_3541
*869 FILLER_0_3557
*870 FILLER_0_3573
*871 FILLER_0_358
*872 FILLER_0_3589
*873 FILLER_0_3605
*874 FILLER_0_3621
*875 FILLER_0_3637
*876 FILLER_0_3653
*877 FILLER_0_3669
*878 FILLER_0_3685
*879 FILLER_0_3701
*880 FILLER_0_3717
*881 FILLER_0_3733
*882 FILLER_0_374
*883 FILLER_0_3783
*884 FILLER_0_3799
*885 FILLER_0_3815
*886 FILLER_0_3831
*887 FILLER_0_3847
*888 FILLER_0_3863
*889 FILLER_0_3879
*890 FILLER_0_3895
*891 FILLER_0_390
*892 FILLER_0_3911
*893 FILLER_0_3927
*894 FILLER_0_3943
*895 FILLER_0_3959
*896 FILLER_0_3975
*897 FILLER_0_3991
*898 FILLER_0_4007
*899 FILLER_0_4023
*900 FILLER_0_4039
*901 FILLER_0_4055
*902 FILLER_0_406
*903 FILLER_0_4071
*904 FILLER_0_4087
*905 FILLER_0_4103
*906 FILLER_0_4119
*907 FILLER_0_4135
*908 FILLER_0_4151
*909 FILLER_0_4167
*910 FILLER_0_4183
*911 FILLER_0_4199
*912 FILLER_0_4215
*913 FILLER_0_422
*914 FILLER_0_4231
*915 FILLER_0_4235
*916 FILLER_0_4282
*917 FILLER_0_4298
*918 FILLER_0_4314
*919 FILLER_0_4330
*920 FILLER_0_4346
*921 FILLER_0_4362
*922 FILLER_0_4378
*923 FILLER_0_438
*924 FILLER_0_4394
*925 FILLER_0_4410
*926 FILLER_0_4426
*927 FILLER_0_4442
*928 FILLER_0_4458
*929 FILLER_0_4474
*930 FILLER_0_4490
*931 FILLER_0_4506
*932 FILLER_0_4522
*933 FILLER_0_4538
*934 FILLER_0_454
*935 FILLER_0_4554
*936 FILLER_0_4570
*937 FILLER_0_4586
*938 FILLER_0_4602
*939 FILLER_0_4618
*940 FILLER_0_4634
*941 FILLER_0_4650
*942 FILLER_0_4666
*943 FILLER_0_4682
*944 FILLER_0_4698
*945 FILLER_0_470
*946 FILLER_0_4714
*947 FILLER_0_4730
*948 FILLER_0_4780
*949 FILLER_0_4796
*950 FILLER_0_48
*951 FILLER_0_4812
*952 FILLER_0_4828
*953 FILLER_0_4844
*954 FILLER_0_486
*955 FILLER_0_4860
*956 FILLER_0_4876
*957 FILLER_0_4892
*958 FILLER_0_4908
*959 FILLER_0_4924
*960 FILLER_0_4940
*961 FILLER_0_4956
*962 FILLER_0_4972
*963 FILLER_0_4988
*964 FILLER_0_5004
*965 FILLER_0_502
*966 FILLER_0_5020
*967 FILLER_0_5036
*968 FILLER_0_5052
*969 FILLER_0_5068
*970 FILLER_0_5084
*971 FILLER_0_5100
*972 FILLER_0_5116
*973 FILLER_0_5132
*974 FILLER_0_5148
*975 FILLER_0_5164
*976 FILLER_0_518
*977 FILLER_0_5180
*978 FILLER_0_5196
*979 FILLER_0_5200
*980 FILLER_0_5202
*981 FILLER_0_5225
*982 FILLER_0_5229
*983 FILLER_0_5231
*984 FILLER_0_5278
*985 FILLER_0_5294
*986 FILLER_0_5310
*987 FILLER_0_5326
*988 FILLER_0_534
*989 FILLER_0_5342
*990 FILLER_0_5358
*991 FILLER_0_5374
*992 FILLER_0_5390
*993 FILLER_0_5406
*994 FILLER_0_5422
*995 FILLER_0_5438
*996 FILLER_0_5454
*997 FILLER_0_5470
*998 FILLER_0_5486
*999 FILLER_0_550
*1000 FILLER_0_5502
*1001 FILLER_0_5518
*1002 FILLER_0_5534
*1003 FILLER_0_5550
*1004 FILLER_0_5566
*1005 FILLER_0_5582
*1006 FILLER_0_5598
*1007 FILLER_0_5614
*1008 FILLER_0_5630
*1009 FILLER_0_5646
*1010 FILLER_0_566
*1011 FILLER_0_5662
*1012 FILLER_0_5678
*1013 FILLER_0_5694
*1014 FILLER_0_5710
*1015 FILLER_0_5726
*1016 FILLER_0_5730
*1017 FILLER_0_5777
*1018 FILLER_0_5793
*1019 FILLER_0_5809
*1020 FILLER_0_582
*1021 FILLER_0_5825
*1022 FILLER_0_5841
*1023 FILLER_0_5857
*1024 FILLER_0_5873
*1025 FILLER_0_5889
*1026 FILLER_0_5905
*1027 FILLER_0_5921
*1028 FILLER_0_5937
*1029 FILLER_0_5953
*1030 FILLER_0_5969
*1031 FILLER_0_598
*1032 FILLER_0_5985
*1033 FILLER_0_6001
*1034 FILLER_0_6017
*1035 FILLER_0_6033
*1036 FILLER_0_6049
*1037 FILLER_0_6065
*1038 FILLER_0_6081
*1039 FILLER_0_6097
*1040 FILLER_0_6113
*1041 FILLER_0_6129
*1042 FILLER_0_614
*1043 FILLER_0_6145
*1044 FILLER_0_6161
*1045 FILLER_0_6177
*1046 FILLER_0_6193
*1047 FILLER_0_6209
*1048 FILLER_0_6225
*1049 FILLER_0_6275
*1050 FILLER_0_6291
*1051 FILLER_0_630
*1052 FILLER_0_6307
*1053 FILLER_0_6323
*1054 FILLER_0_6339
*1055 FILLER_0_6355
*1056 FILLER_0_6371
*1057 FILLER_0_6387
*1058 FILLER_0_64
*1059 FILLER_0_6403
*1060 FILLER_0_6419
*1061 FILLER_0_6435
*1062 FILLER_0_6451
*1063 FILLER_0_646
*1064 FILLER_0_6467
*1065 FILLER_0_6483
*1066 FILLER_0_6499
*1067 FILLER_0_6515
*1068 FILLER_0_6531
*1069 FILLER_0_6547
*1070 FILLER_0_6563
*1071 FILLER_0_6579
*1072 FILLER_0_6595
*1073 FILLER_0_6611
*1074 FILLER_0_662
*1075 FILLER_0_6627
*1076 FILLER_0_6643
*1077 FILLER_0_6659
*1078 FILLER_0_6675
*1079 FILLER_0_6691
*1080 FILLER_0_6707
*1081 FILLER_0_6723
*1082 FILLER_0_6727
*1083 FILLER_0_6774
*1084 FILLER_0_678
*1085 FILLER_0_6790
*1086 FILLER_0_6806
*1087 FILLER_0_6822
*1088 FILLER_0_6838
*1089 FILLER_0_6854
*1090 FILLER_0_6870
*1091 FILLER_0_6886
*1092 FILLER_0_6902
*1093 FILLER_0_6918
*1094 FILLER_0_6934
*1095 FILLER_0_694
*1096 FILLER_0_6950
*1097 FILLER_0_6966
*1098 FILLER_0_6982
*1099 FILLER_0_6998
*1100 FILLER_0_7014
*1101 FILLER_0_7030
*1102 FILLER_0_7046
*1103 FILLER_0_7062
*1104 FILLER_0_7078
*1105 FILLER_0_7094
*1106 FILLER_0_710
*1107 FILLER_0_7110
*1108 FILLER_0_7126
*1109 FILLER_0_7142
*1110 FILLER_0_7158
*1111 FILLER_0_7174
*1112 FILLER_0_7190
*1113 FILLER_0_7206
*1114 FILLER_0_7222
*1115 FILLER_0_726
*1116 FILLER_0_7272
*1117 FILLER_0_7288
*1118 FILLER_0_7304
*1119 FILLER_0_7320
*1120 FILLER_0_7336
*1121 FILLER_0_7352
*1122 FILLER_0_7368
*1123 FILLER_0_7384
*1124 FILLER_0_7400
*1125 FILLER_0_7416
*1126 FILLER_0_742
*1127 FILLER_0_7432
*1128 FILLER_0_7448
*1129 FILLER_0_7464
*1130 FILLER_0_7480
*1131 FILLER_0_7496
*1132 FILLER_0_7512
*1133 FILLER_0_7528
*1134 FILLER_0_7544
*1135 FILLER_0_7560
*1136 FILLER_0_7576
*1137 FILLER_0_758
*1138 FILLER_0_7592
*1139 FILLER_0_7608
*1140 FILLER_0_7624
*1141 FILLER_0_7640
*1142 FILLER_0_7656
*1143 FILLER_0_7672
*1144 FILLER_0_7688
*1145 FILLER_0_7704
*1146 FILLER_0_7720
*1147 FILLER_0_774
*1148 FILLER_0_7770
*1149 FILLER_0_7786
*1150 FILLER_0_7802
*1151 FILLER_0_7818
*1152 FILLER_0_7834
*1153 FILLER_0_7850
*1154 FILLER_0_7866
*1155 FILLER_0_7882
*1156 FILLER_0_7898
*1157 FILLER_0_790
*1158 FILLER_0_7914
*1159 FILLER_0_7930
*1160 FILLER_0_7946
*1161 FILLER_0_7962
*1162 FILLER_0_7978
*1163 FILLER_0_7994
*1164 FILLER_0_80
*1165 FILLER_0_8010
*1166 FILLER_0_8026
*1167 FILLER_0_8042
*1168 FILLER_0_8058
*1169 FILLER_0_806
*1170 FILLER_0_8074
*1171 FILLER_0_8090
*1172 FILLER_0_8106
*1173 FILLER_0_8122
*1174 FILLER_0_8138
*1175 FILLER_0_8154
*1176 FILLER_0_8170
*1177 FILLER_0_8186
*1178 FILLER_0_8202
*1179 FILLER_0_8218
*1180 FILLER_0_822
*1181 FILLER_0_8222
*1182 FILLER_0_8269
*1183 FILLER_0_8285
*1184 FILLER_0_8301
*1185 FILLER_0_8317
*1186 FILLER_0_8333
*1187 FILLER_0_8349
*1188 FILLER_0_8365
*1189 FILLER_0_838
*1190 FILLER_0_8381
*1191 FILLER_0_8397
*1192 FILLER_0_8413
*1193 FILLER_0_8429
*1194 FILLER_0_8445
*1195 FILLER_0_8461
*1196 FILLER_0_8477
*1197 FILLER_0_8493
*1198 FILLER_0_8509
*1199 FILLER_0_8525
*1200 FILLER_0_854
*1201 FILLER_0_8541
*1202 FILLER_0_8557
*1203 FILLER_0_8573
*1204 FILLER_0_8589
*1205 FILLER_0_8605
*1206 FILLER_0_8621
*1207 FILLER_0_8637
*1208 FILLER_0_8653
*1209 FILLER_0_8669
*1210 FILLER_0_8685
*1211 FILLER_0_870
*1212 FILLER_0_8701
*1213 FILLER_0_8717
*1214 FILLER_0_8767
*1215 FILLER_0_8783
*1216 FILLER_0_8799
*1217 FILLER_0_8815
*1218 FILLER_0_8831
*1219 FILLER_0_8847
*1220 FILLER_0_886
*1221 FILLER_0_8863
*1222 FILLER_0_8879
*1223 FILLER_0_8895
*1224 FILLER_0_8911
*1225 FILLER_0_8927
*1226 FILLER_0_8943
*1227 FILLER_0_8959
*1228 FILLER_0_8975
*1229 FILLER_0_902
*1230 FILLER_0_918
*1231 FILLER_0_934
*1232 FILLER_0_950
*1233 FILLER_0_96
*1234 FILLER_0_966
*1235 FILLER_0_982
*1236 FILLER_0_998
*1237 FILLER_10_0
*1238 FILLER_10_1008
*1239 FILLER_10_1024
*1240 FILLER_10_1040
*1241 FILLER_10_1056
*1242 FILLER_10_1072
*1243 FILLER_10_1088
*1244 FILLER_10_1104
*1245 FILLER_10_112
*1246 FILLER_10_1120
*1247 FILLER_10_1136
*1248 FILLER_10_1152
*1249 FILLER_10_1168
*1250 FILLER_10_1184
*1251 FILLER_10_1200
*1252 FILLER_10_1216
*1253 FILLER_10_1232
*1254 FILLER_10_1248
*1255 FILLER_10_1264
*1256 FILLER_10_128
*1257 FILLER_10_1280
*1258 FILLER_10_1296
*1259 FILLER_10_1312
*1260 FILLER_10_1328
*1261 FILLER_10_1344
*1262 FILLER_10_1360
*1263 FILLER_10_1376
*1264 FILLER_10_1392
*1265 FILLER_10_1408
*1266 FILLER_10_1424
*1267 FILLER_10_144
*1268 FILLER_10_1440
*1269 FILLER_10_1456
*1270 FILLER_10_1472
*1271 FILLER_10_1488
*1272 FILLER_10_1504
*1273 FILLER_10_1520
*1274 FILLER_10_1536
*1275 FILLER_10_1552
*1276 FILLER_10_1568
*1277 FILLER_10_1584
*1278 FILLER_10_16
*1279 FILLER_10_160
*1280 FILLER_10_1600
*1281 FILLER_10_1616
*1282 FILLER_10_1632
*1283 FILLER_10_1648
*1284 FILLER_10_1664
*1285 FILLER_10_1680
*1286 FILLER_10_1696
*1287 FILLER_10_1712
*1288 FILLER_10_1728
*1289 FILLER_10_1744
*1290 FILLER_10_176
*1291 FILLER_10_1760
*1292 FILLER_10_1776
*1293 FILLER_10_1792
*1294 FILLER_10_1808
*1295 FILLER_10_1824
*1296 FILLER_10_1840
*1297 FILLER_10_1856
*1298 FILLER_10_1872
*1299 FILLER_10_1888
*1300 FILLER_10_1904
*1301 FILLER_10_192
*1302 FILLER_10_1920
*1303 FILLER_10_1936
*1304 FILLER_10_1952
*1305 FILLER_10_1968
*1306 FILLER_10_1984
*1307 FILLER_10_2000
*1308 FILLER_10_2016
*1309 FILLER_10_2032
*1310 FILLER_10_2048
*1311 FILLER_10_2064
*1312 FILLER_10_208
*1313 FILLER_10_2080
*1314 FILLER_10_2096
*1315 FILLER_10_2112
*1316 FILLER_10_2128
*1317 FILLER_10_2144
*1318 FILLER_10_2160
*1319 FILLER_10_2176
*1320 FILLER_10_2192
*1321 FILLER_10_2208
*1322 FILLER_10_2224
*1323 FILLER_10_224
*1324 FILLER_10_2240
*1325 FILLER_10_2256
*1326 FILLER_10_2272
*1327 FILLER_10_2288
*1328 FILLER_10_2304
*1329 FILLER_10_2320
*1330 FILLER_10_2336
*1331 FILLER_10_2352
*1332 FILLER_10_2368
*1333 FILLER_10_2384
*1334 FILLER_10_240
*1335 FILLER_10_2400
*1336 FILLER_10_2416
*1337 FILLER_10_2432
*1338 FILLER_10_2448
*1339 FILLER_10_2464
*1340 FILLER_10_2480
*1341 FILLER_10_2496
*1342 FILLER_10_2512
*1343 FILLER_10_2528
*1344 FILLER_10_2544
*1345 FILLER_10_256
*1346 FILLER_10_2560
*1347 FILLER_10_2576
*1348 FILLER_10_2592
*1349 FILLER_10_2608
*1350 FILLER_10_2624
*1351 FILLER_10_2640
*1352 FILLER_10_2656
*1353 FILLER_10_2672
*1354 FILLER_10_2688
*1355 FILLER_10_2704
*1356 FILLER_10_272
*1357 FILLER_10_2720
*1358 FILLER_10_2736
*1359 FILLER_10_2752
*1360 FILLER_10_2768
*1361 FILLER_10_2784
*1362 FILLER_10_2800
*1363 FILLER_10_2816
*1364 FILLER_10_2832
*1365 FILLER_10_2848
*1366 FILLER_10_2864
*1367 FILLER_10_288
*1368 FILLER_10_2880
*1369 FILLER_10_2896
*1370 FILLER_10_2912
*1371 FILLER_10_2928
*1372 FILLER_10_2944
*1373 FILLER_10_2960
*1374 FILLER_10_2976
*1375 FILLER_10_2992
*1376 FILLER_10_3008
*1377 FILLER_10_3024
*1378 FILLER_10_304
*1379 FILLER_10_3040
*1380 FILLER_10_3056
*1381 FILLER_10_3072
*1382 FILLER_10_3088
*1383 FILLER_10_3104
*1384 FILLER_10_3120
*1385 FILLER_10_3136
*1386 FILLER_10_3152
*1387 FILLER_10_3168
*1388 FILLER_10_3184
*1389 FILLER_10_32
*1390 FILLER_10_320
*1391 FILLER_10_3200
*1392 FILLER_10_3216
*1393 FILLER_10_3232
*1394 FILLER_10_3248
*1395 FILLER_10_3264
*1396 FILLER_10_3280
*1397 FILLER_10_3296
*1398 FILLER_10_3312
*1399 FILLER_10_3328
*1400 FILLER_10_3344
*1401 FILLER_10_336
*1402 FILLER_10_3360
*1403 FILLER_10_3376
*1404 FILLER_10_3392
*1405 FILLER_10_3408
*1406 FILLER_10_3424
*1407 FILLER_10_3440
*1408 FILLER_10_3456
*1409 FILLER_10_3472
*1410 FILLER_10_3488
*1411 FILLER_10_3504
*1412 FILLER_10_352
*1413 FILLER_10_3520
*1414 FILLER_10_3536
*1415 FILLER_10_3552
*1416 FILLER_10_3568
*1417 FILLER_10_3584
*1418 FILLER_10_3600
*1419 FILLER_10_3616
*1420 FILLER_10_3632
*1421 FILLER_10_3648
*1422 FILLER_10_3664
*1423 FILLER_10_368
*1424 FILLER_10_3680
*1425 FILLER_10_3696
*1426 FILLER_10_3712
*1427 FILLER_10_3728
*1428 FILLER_10_3744
*1429 FILLER_10_3760
*1430 FILLER_10_3776
*1431 FILLER_10_3792
*1432 FILLER_10_3808
*1433 FILLER_10_3824
*1434 FILLER_10_384
*1435 FILLER_10_3840
*1436 FILLER_10_3856
*1437 FILLER_10_3872
*1438 FILLER_10_3888
*1439 FILLER_10_3904
*1440 FILLER_10_3920
*1441 FILLER_10_3936
*1442 FILLER_10_3952
*1443 FILLER_10_3968
*1444 FILLER_10_3984
*1445 FILLER_10_400
*1446 FILLER_10_4000
*1447 FILLER_10_4016
*1448 FILLER_10_4032
*1449 FILLER_10_4048
*1450 FILLER_10_4064
*1451 FILLER_10_4080
*1452 FILLER_10_4096
*1453 FILLER_10_4112
*1454 FILLER_10_4128
*1455 FILLER_10_4144
*1456 FILLER_10_416
*1457 FILLER_10_4160
*1458 FILLER_10_4176
*1459 FILLER_10_4192
*1460 FILLER_10_4208
*1461 FILLER_10_4224
*1462 FILLER_10_4240
*1463 FILLER_10_4256
*1464 FILLER_10_4272
*1465 FILLER_10_4288
*1466 FILLER_10_4304
*1467 FILLER_10_432
*1468 FILLER_10_4320
*1469 FILLER_10_4336
*1470 FILLER_10_4352
*1471 FILLER_10_4368
*1472 FILLER_10_4384
*1473 FILLER_10_4400
*1474 FILLER_10_4416
*1475 FILLER_10_4432
*1476 FILLER_10_4448
*1477 FILLER_10_4464
*1478 FILLER_10_448
*1479 FILLER_10_4480
*1480 FILLER_10_4496
*1481 FILLER_10_4512
*1482 FILLER_10_4528
*1483 FILLER_10_4544
*1484 FILLER_10_4560
*1485 FILLER_10_4576
*1486 FILLER_10_4592
*1487 FILLER_10_4608
*1488 FILLER_10_4624
*1489 FILLER_10_464
*1490 FILLER_10_4640
*1491 FILLER_10_4656
*1492 FILLER_10_4672
*1493 FILLER_10_4688
*1494 FILLER_10_4704
*1495 FILLER_10_4720
*1496 FILLER_10_4736
*1497 FILLER_10_4752
*1498 FILLER_10_4768
*1499 FILLER_10_4784
*1500 FILLER_10_48
*1501 FILLER_10_480
*1502 FILLER_10_4800
*1503 FILLER_10_4816
*1504 FILLER_10_4832
*1505 FILLER_10_4848
*1506 FILLER_10_4864
*1507 FILLER_10_4880
*1508 FILLER_10_4896
*1509 FILLER_10_4912
*1510 FILLER_10_4928
*1511 FILLER_10_4944
*1512 FILLER_10_496
*1513 FILLER_10_4960
*1514 FILLER_10_4976
*1515 FILLER_10_4992
*1516 FILLER_10_5008
*1517 FILLER_10_5024
*1518 FILLER_10_5040
*1519 FILLER_10_5056
*1520 FILLER_10_5072
*1521 FILLER_10_5088
*1522 FILLER_10_5104
*1523 FILLER_10_512
*1524 FILLER_10_5120
*1525 FILLER_10_5136
*1526 FILLER_10_5152
*1527 FILLER_10_5168
*1528 FILLER_10_5184
*1529 FILLER_10_5200
*1530 FILLER_10_5216
*1531 FILLER_10_5232
*1532 FILLER_10_5248
*1533 FILLER_10_5264
*1534 FILLER_10_528
*1535 FILLER_10_5280
*1536 FILLER_10_5296
*1537 FILLER_10_5312
*1538 FILLER_10_5328
*1539 FILLER_10_5344
*1540 FILLER_10_5360
*1541 FILLER_10_5376
*1542 FILLER_10_5392
*1543 FILLER_10_5408
*1544 FILLER_10_5424
*1545 FILLER_10_544
*1546 FILLER_10_5440
*1547 FILLER_10_5456
*1548 FILLER_10_5472
*1549 FILLER_10_5488
*1550 FILLER_10_5504
*1551 FILLER_10_5520
*1552 FILLER_10_5536
*1553 FILLER_10_5552
*1554 FILLER_10_5568
*1555 FILLER_10_5584
*1556 FILLER_10_560
*1557 FILLER_10_5600
*1558 FILLER_10_5616
*1559 FILLER_10_5632
*1560 FILLER_10_5648
*1561 FILLER_10_5664
*1562 FILLER_10_5680
*1563 FILLER_10_5696
*1564 FILLER_10_5712
*1565 FILLER_10_5728
*1566 FILLER_10_5744
*1567 FILLER_10_576
*1568 FILLER_10_5760
*1569 FILLER_10_5776
*1570 FILLER_10_5792
*1571 FILLER_10_5808
*1572 FILLER_10_5824
*1573 FILLER_10_5840
*1574 FILLER_10_5856
*1575 FILLER_10_5872
*1576 FILLER_10_5888
*1577 FILLER_10_5904
*1578 FILLER_10_592
*1579 FILLER_10_5920
*1580 FILLER_10_5936
*1581 FILLER_10_5952
*1582 FILLER_10_5968
*1583 FILLER_10_5984
*1584 FILLER_10_6000
*1585 FILLER_10_6016
*1586 FILLER_10_6032
*1587 FILLER_10_6048
*1588 FILLER_10_6064
*1589 FILLER_10_608
*1590 FILLER_10_6080
*1591 FILLER_10_6096
*1592 FILLER_10_6112
*1593 FILLER_10_6128
*1594 FILLER_10_6144
*1595 FILLER_10_6160
*1596 FILLER_10_6176
*1597 FILLER_10_6192
*1598 FILLER_10_6208
*1599 FILLER_10_6224
*1600 FILLER_10_624
*1601 FILLER_10_6240
*1602 FILLER_10_6256
*1603 FILLER_10_6272
*1604 FILLER_10_6288
*1605 FILLER_10_6304
*1606 FILLER_10_6320
*1607 FILLER_10_6336
*1608 FILLER_10_6352
*1609 FILLER_10_6368
*1610 FILLER_10_6384
*1611 FILLER_10_64
*1612 FILLER_10_640
*1613 FILLER_10_6400
*1614 FILLER_10_6416
*1615 FILLER_10_6432
*1616 FILLER_10_6448
*1617 FILLER_10_6464
*1618 FILLER_10_6480
*1619 FILLER_10_6496
*1620 FILLER_10_6512
*1621 FILLER_10_6528
*1622 FILLER_10_6544
*1623 FILLER_10_656
*1624 FILLER_10_6560
*1625 FILLER_10_6576
*1626 FILLER_10_6592
*1627 FILLER_10_6608
*1628 FILLER_10_6624
*1629 FILLER_10_6640
*1630 FILLER_10_6656
*1631 FILLER_10_6672
*1632 FILLER_10_6688
*1633 FILLER_10_6704
*1634 FILLER_10_672
*1635 FILLER_10_6720
*1636 FILLER_10_6736
*1637 FILLER_10_6752
*1638 FILLER_10_6768
*1639 FILLER_10_6784
*1640 FILLER_10_6800
*1641 FILLER_10_6816
*1642 FILLER_10_6832
*1643 FILLER_10_6848
*1644 FILLER_10_6864
*1645 FILLER_10_688
*1646 FILLER_10_6880
*1647 FILLER_10_6896
*1648 FILLER_10_6912
*1649 FILLER_10_6928
*1650 FILLER_10_6944
*1651 FILLER_10_6960
*1652 FILLER_10_6976
*1653 FILLER_10_6992
*1654 FILLER_10_7008
*1655 FILLER_10_7024
*1656 FILLER_10_704
*1657 FILLER_10_7040
*1658 FILLER_10_7056
*1659 FILLER_10_7072
*1660 FILLER_10_7088
*1661 FILLER_10_7104
*1662 FILLER_10_7120
*1663 FILLER_10_7136
*1664 FILLER_10_7152
*1665 FILLER_10_7168
*1666 FILLER_10_7184
*1667 FILLER_10_720
*1668 FILLER_10_7200
*1669 FILLER_10_7216
*1670 FILLER_10_7232
*1671 FILLER_10_7248
*1672 FILLER_10_7264
*1673 FILLER_10_7280
*1674 FILLER_10_7296
*1675 FILLER_10_7312
*1676 FILLER_10_7328
*1677 FILLER_10_7344
*1678 FILLER_10_736
*1679 FILLER_10_7360
*1680 FILLER_10_7376
*1681 FILLER_10_7392
*1682 FILLER_10_7408
*1683 FILLER_10_7424
*1684 FILLER_10_7440
*1685 FILLER_10_7456
*1686 FILLER_10_7472
*1687 FILLER_10_7488
*1688 FILLER_10_7504
*1689 FILLER_10_752
*1690 FILLER_10_7520
*1691 FILLER_10_7536
*1692 FILLER_10_7552
*1693 FILLER_10_7568
*1694 FILLER_10_7584
*1695 FILLER_10_7600
*1696 FILLER_10_7616
*1697 FILLER_10_7632
*1698 FILLER_10_7648
*1699 FILLER_10_7664
*1700 FILLER_10_768
*1701 FILLER_10_7680
*1702 FILLER_10_7696
*1703 FILLER_10_7712
*1704 FILLER_10_7728
*1705 FILLER_10_7744
*1706 FILLER_10_7760
*1707 FILLER_10_7776
*1708 FILLER_10_7792
*1709 FILLER_10_7808
*1710 FILLER_10_7824
*1711 FILLER_10_784
*1712 FILLER_10_7840
*1713 FILLER_10_7856
*1714 FILLER_10_7872
*1715 FILLER_10_7888
*1716 FILLER_10_7904
*1717 FILLER_10_7920
*1718 FILLER_10_7936
*1719 FILLER_10_7952
*1720 FILLER_10_7968
*1721 FILLER_10_7984
*1722 FILLER_10_80
*1723 FILLER_10_800
*1724 FILLER_10_8000
*1725 FILLER_10_8016
*1726 FILLER_10_8032
*1727 FILLER_10_8048
*1728 FILLER_10_8064
*1729 FILLER_10_8080
*1730 FILLER_10_8096
*1731 FILLER_10_8112
*1732 FILLER_10_8128
*1733 FILLER_10_8144
*1734 FILLER_10_816
*1735 FILLER_10_8160
*1736 FILLER_10_8176
*1737 FILLER_10_8192
*1738 FILLER_10_8208
*1739 FILLER_10_8224
*1740 FILLER_10_8240
*1741 FILLER_10_8256
*1742 FILLER_10_8272
*1743 FILLER_10_8288
*1744 FILLER_10_8304
*1745 FILLER_10_832
*1746 FILLER_10_8320
*1747 FILLER_10_8336
*1748 FILLER_10_8352
*1749 FILLER_10_8368
*1750 FILLER_10_8384
*1751 FILLER_10_8400
*1752 FILLER_10_8416
*1753 FILLER_10_8432