*SPEF "ieee 1481-1999"
*DESIGN "ffra"
*DATE "11:11:11 Fri 11 11, 1111"
*VENDOR "OpenRCX"
*PROGRAM "Parallel Extraction"
*VERSION "1.0"
*DESIGN_FLOW "NAME_SCOPE LOCAL" "PIN_CAP NONE"
*DIVIDER /
*DELIMITER :
*BUS_DELIMITER []
*T_UNIT 1 NS
*C_UNIT 1 PF
*R_UNIT 1 OHM
*L_UNIT 1 HENRY

*NAME_MAP
*1 a[0]
*2 a[1]
*3 a[2]
*4 a[3]
*5 b[0]
*6 b[1]
*7 b[2]
*8 b[3]
*9 ci[0]
*10 ci[1]
*11 ci[2]
*12 ci[3]
*13 ci[4]
*14 ci[5]
*15 ci[6]
*16 ci[7]
*17 clk
*18 o[0]
*19 o[1]
*20 o[2]
*21 o[3]
*22 o[4]
*23 o[5]
*24 o[6]
*25 o[7]
*26 rst
*29 _000_
*30 _001_
*31 _002_
*32 _003_
*33 _004_
*34 _005_
*35 _006_
*36 _007_
*37 _008_
*38 _009_
*39 _010_
*40 _011_
*41 _012_
*42 _013_
*43 _014_
*44 _015_
*45 _016_
*46 _017_
*47 _018_
*48 _019_
*49 _020_
*50 _021_
*51 _022_
*52 _023_
*53 _024_
*54 _025_
*55 _026_
*56 _027_
*57 _028_
*58 _029_
*59 _030_
*60 _031_
*61 _032_
*62 _033_
*63 _034_
*64 _035_
*65 _036_
*66 _037_
*67 _038_
*68 _039_
*69 _040_
*70 _041_
*71 _042_
*72 _043_
*73 _044_
*74 _045_
*75 _046_
*76 _047_
*77 _048_
*78 _049_
*79 _050_
*80 _051_
*81 _052_
*82 _053_
*83 _054_
*84 _055_
*85 _056_
*86 _057_
*87 _058_
*88 _059_
*89 _060_
*90 _061_
*91 _062_
*92 _063_
*93 _064_
*94 _065_
*95 _066_
*96 _067_
*97 _068_
*98 _069_
*99 _070_
*100 _071_
*101 _072_
*102 _073_
*103 _074_
*104 _075_
*105 _076_
*106 _077_
*107 _078_
*108 _079_
*109 _080_
*110 _081_
*111 _082_
*112 _083_
*113 _084_
*114 _085_
*115 _086_
*116 _087_
*117 _088_
*118 _089_
*119 _090_
*120 _091_
*121 _092_
*122 _093_
*123 _094_
*124 _095_
*125 _096_
*126 _097_
*127 _098_
*128 _099_
*129 _100_
*130 _101_
*131 _102_
*132 _103_
*133 _104_
*134 _105_
*135 _106_
*136 _107_
*137 _108_
*138 _109_
*139 _110_
*140 _111_
*141 _112_
*142 _113_
*143 _114_
*144 _115_
*145 _116_
*146 _117_
*147 _118_
*148 _119_
*149 _120_
*150 _121_
*151 _122_
*152 _123_
*153 _124_
*154 _125_
*155 _126_
*156 _127_
*157 _128_
*158 _129_
*159 _130_
*160 _131_
*161 _132_
*162 _133_
*163 _134_
*164 _135_
*165 _136_
*166 net1
*167 net10
*168 net11
*169 net12
*170 net13
*171 net14
*172 net15
*173 net16
*174 net17
*175 net18
*176 net19
*177 net2
*178 net20
*179 net21
*180 net22
*181 net23
*182 net24
*183 net25
*184 net26
*185 net27
*186 net28
*187 net29
*188 net3
*189 net30
*190 net31
*191 net32
*192 net33
*193 net34
*194 net35
*195 net36
*196 net37
*197 net38
*198 net4
*199 net5
*200 net6
*201 net7
*202 net8
*203 net9
*204 o_tmp\[0\]\[0\]
*205 o_tmp\[0\]\[1\]
*206 o_tmp\[0\]\[2\]
*207 o_tmp\[0\]\[3\]
*208 o_tmp\[0\]\[4\]
*209 o_tmp\[0\]\[5\]
*210 o_tmp\[0\]\[6\]
*211 o_tmp\[0\]\[7\]
*212 o_tmp\[1\]\[0\]
*213 o_tmp\[1\]\[1\]
*214 o_tmp\[1\]\[2\]
*215 o_tmp\[1\]\[3\]
*216 o_tmp\[1\]\[4\]
*217 o_tmp\[1\]\[5\]
*218 o_tmp\[1\]\[6\]
*219 o_tmp\[1\]\[7\]
*220 o_tmp\[2\]\[0\]
*221 o_tmp\[2\]\[1\]
*222 o_tmp\[2\]\[2\]
*223 o_tmp\[2\]\[3\]
*224 o_tmp\[2\]\[4\]
*225 o_tmp\[2\]\[5\]
*226 o_tmp\[2\]\[6\]
*227 o_tmp\[2\]\[7\]
*228 FILLER_0_0
*229 FILLER_0_1000
*230 FILLER_0_1016
*231 FILLER_0_1032
*232 FILLER_0_1048
*233 FILLER_0_1064
*234 FILLER_0_1080
*235 FILLER_0_1096
*236 FILLER_0_1112
*237 FILLER_0_112
*238 FILLER_0_1128
*239 FILLER_0_1144
*240 FILLER_0_1160
*241 FILLER_0_1176
*242 FILLER_0_1192
*243 FILLER_0_1208
*244 FILLER_0_1224
*245 FILLER_0_1240
*246 FILLER_0_1256
*247 FILLER_0_1272
*248 FILLER_0_128
*249 FILLER_0_1288
*250 FILLER_0_1304
*251 FILLER_0_1320
*252 FILLER_0_1336
*253 FILLER_0_1352
*254 FILLER_0_1368
*255 FILLER_0_1384
*256 FILLER_0_1400
*257 FILLER_0_1416
*258 FILLER_0_1432
*259 FILLER_0_144
*260 FILLER_0_1448
*261 FILLER_0_1464
*262 FILLER_0_1480
*263 FILLER_0_1496
*264 FILLER_0_1512
*265 FILLER_0_1528
*266 FILLER_0_1544
*267 FILLER_0_1560
*268 FILLER_0_1576
*269 FILLER_0_1592
*270 FILLER_0_16
*271 FILLER_0_160
*272 FILLER_0_1608
*273 FILLER_0_1624
*274 FILLER_0_1640
*275 FILLER_0_1656
*276 FILLER_0_1672
*277 FILLER_0_1688
*278 FILLER_0_1704
*279 FILLER_0_1720
*280 FILLER_0_1736
*281 FILLER_0_1752
*282 FILLER_0_176
*283 FILLER_0_1768
*284 FILLER_0_1784
*285 FILLER_0_1800
*286 FILLER_0_1816
*287 FILLER_0_1832
*288 FILLER_0_1848
*289 FILLER_0_1864
*290 FILLER_0_1880
*291 FILLER_0_1896
*292 FILLER_0_1912
*293 FILLER_0_192
*294 FILLER_0_1928
*295 FILLER_0_1944
*296 FILLER_0_1960
*297 FILLER_0_1976
*298 FILLER_0_1992
*299 FILLER_0_2008
*300 FILLER_0_2024
*301 FILLER_0_2040
*302 FILLER_0_2056
*303 FILLER_0_2072
*304 FILLER_0_208
*305 FILLER_0_2088
*306 FILLER_0_2104
*307 FILLER_0_2120
*308 FILLER_0_2136
*309 FILLER_0_2152
*310 FILLER_0_2168
*311 FILLER_0_2184
*312 FILLER_0_2200
*313 FILLER_0_2216
*314 FILLER_0_2232
*315 FILLER_0_224
*316 FILLER_0_2280
*317 FILLER_0_2296
*318 FILLER_0_2312
*319 FILLER_0_2328
*320 FILLER_0_2344
*321 FILLER_0_2360
*322 FILLER_0_2376
*323 FILLER_0_2392
*324 FILLER_0_240
*325 FILLER_0_2408
*326 FILLER_0_2424
*327 FILLER_0_2440
*328 FILLER_0_2456
*329 FILLER_0_2472
*330 FILLER_0_2488
*331 FILLER_0_2504
*332 FILLER_0_2520
*333 FILLER_0_2536
*334 FILLER_0_2552
*335 FILLER_0_256
*336 FILLER_0_2568
*337 FILLER_0_2584
*338 FILLER_0_2600
*339 FILLER_0_2616
*340 FILLER_0_2632
*341 FILLER_0_2648
*342 FILLER_0_2664
*343 FILLER_0_2680
*344 FILLER_0_2696
*345 FILLER_0_2712
*346 FILLER_0_272
*347 FILLER_0_2728
*348 FILLER_0_2744
*349 FILLER_0_2760
*350 FILLER_0_2776
*351 FILLER_0_2792
*352 FILLER_0_2808
*353 FILLER_0_2824
*354 FILLER_0_2840
*355 FILLER_0_2856
*356 FILLER_0_2872
*357 FILLER_0_288
*358 FILLER_0_2888
*359 FILLER_0_2904
*360 FILLER_0_2920
*361 FILLER_0_2936
*362 FILLER_0_2952
*363 FILLER_0_2968
*364 FILLER_0_2984
*365 FILLER_0_3000
*366 FILLER_0_3016
*367 FILLER_0_3032
*368 FILLER_0_304
*369 FILLER_0_3048
*370 FILLER_0_3064
*371 FILLER_0_3080
*372 FILLER_0_3096
*373 FILLER_0_3112
*374 FILLER_0_3128
*375 FILLER_0_3176
*376 FILLER_0_3192
*377 FILLER_0_32
*378 FILLER_0_320
*379 FILLER_0_3208
*380 FILLER_0_3224
*381 FILLER_0_3240
*382 FILLER_0_3256
*383 FILLER_0_3272
*384 FILLER_0_3288
*385 FILLER_0_3304
*386 FILLER_0_3320
*387 FILLER_0_3336
*388 FILLER_0_3352
*389 FILLER_0_336
*390 FILLER_0_3368
*391 FILLER_0_3384
*392 FILLER_0_3400
*393 FILLER_0_3416
*394 FILLER_0_3432
*395 FILLER_0_3448
*396 FILLER_0_3464
*397 FILLER_0_3480
*398 FILLER_0_3496
*399 FILLER_0_3512
*400 FILLER_0_352
*401 FILLER_0_3528
*402 FILLER_0_3544
*403 FILLER_0_3560
*404 FILLER_0_3576
*405 FILLER_0_3592
*406 FILLER_0_3608
*407 FILLER_0_3624
*408 FILLER_0_3640
*409 FILLER_0_3656
*410 FILLER_0_3672
*411 FILLER_0_368
*412 FILLER_0_3688
*413 FILLER_0_3704
*414 FILLER_0_3720
*415 FILLER_0_3736
*416 FILLER_0_3752
*417 FILLER_0_3768
*418 FILLER_0_3784
*419 FILLER_0_3800
*420 FILLER_0_3816
*421 FILLER_0_3832
*422 FILLER_0_384
*423 FILLER_0_3848
*424 FILLER_0_3864
*425 FILLER_0_3880
*426 FILLER_0_3896
*427 FILLER_0_3912
*428 FILLER_0_3928
*429 FILLER_0_3944
*430 FILLER_0_3960
*431 FILLER_0_3976
*432 FILLER_0_3992
*433 FILLER_0_400
*434 FILLER_0_4008
*435 FILLER_0_4024
*436 FILLER_0_4072
*437 FILLER_0_4088
*438 FILLER_0_4104
*439 FILLER_0_4120
*440 FILLER_0_4136
*441 FILLER_0_4152
*442 FILLER_0_416
*443 FILLER_0_4168
*444 FILLER_0_4184
*445 FILLER_0_4200
*446 FILLER_0_4216
*447 FILLER_0_4232
*448 FILLER_0_4248
*449 FILLER_0_4264
*450 FILLER_0_4280
*451 FILLER_0_4296
*452 FILLER_0_4312
*453 FILLER_0_432
*454 FILLER_0_4328
*455 FILLER_0_4344
*456 FILLER_0_4360
*457 FILLER_0_4376
*458 FILLER_0_4392
*459 FILLER_0_4408
*460 FILLER_0_4424
*461 FILLER_0_4440
*462 FILLER_0_4456
*463 FILLER_0_4472
*464 FILLER_0_448
*465 FILLER_0_4488
*466 FILLER_0_4504
*467 FILLER_0_4520
*468 FILLER_0_4536
*469 FILLER_0_4552
*470 FILLER_0_4568
*471 FILLER_0_4584
*472 FILLER_0_4600
*473 FILLER_0_4616
*474 FILLER_0_4632
*475 FILLER_0_4648
*476 FILLER_0_4664
*477 FILLER_0_4680
*478 FILLER_0_4696
*479 FILLER_0_4712
*480 FILLER_0_4728
*481 FILLER_0_4744
*482 FILLER_0_4760
*483 FILLER_0_4776
*484 FILLER_0_4792
*485 FILLER_0_48
*486 FILLER_0_4808
*487 FILLER_0_4824
*488 FILLER_0_4840
*489 FILLER_0_4856
*490 FILLER_0_4872
*491 FILLER_0_488
*492 FILLER_0_4888
*493 FILLER_0_4904
*494 FILLER_0_4920
*495 FILLER_0_4968
*496 FILLER_0_4984
*497 FILLER_0_5000
*498 FILLER_0_5016
*499 FILLER_0_5032
*500 FILLER_0_504
*501 FILLER_0_5048
*502 FILLER_0_5064
*503 FILLER_0_5080
*504 FILLER_0_5096
*505 FILLER_0_5112
*506 FILLER_0_5128
*507 FILLER_0_5144
*508 FILLER_0_5160
*509 FILLER_0_5176
*510 FILLER_0_5192
*511 FILLER_0_520
*512 FILLER_0_5208
*513 FILLER_0_5224
*514 FILLER_0_5240
*515 FILLER_0_5256
*516 FILLER_0_5272
*517 FILLER_0_5288
*518 FILLER_0_5304
*519 FILLER_0_5320
*520 FILLER_0_5336
*521 FILLER_0_5352
*522 FILLER_0_536
*523 FILLER_0_5368
*524 FILLER_0_5384
*525 FILLER_0_5400
*526 FILLER_0_5416
*527 FILLER_0_5432
*528 FILLER_0_5448
*529 FILLER_0_5464
*530 FILLER_0_5480
*531 FILLER_0_5496
*532 FILLER_0_5512
*533 FILLER_0_552
*534 FILLER_0_5528
*535 FILLER_0_5544
*536 FILLER_0_5560
*537 FILLER_0_5576
*538 FILLER_0_5592
*539 FILLER_0_5608
*540 FILLER_0_5624
*541 FILLER_0_5640
*542 FILLER_0_5656
*543 FILLER_0_5672
*544 FILLER_0_568
*545 FILLER_0_5688
*546 FILLER_0_5704
*547 FILLER_0_5720
*548 FILLER_0_5736
*549 FILLER_0_5752
*550 FILLER_0_5768
*551 FILLER_0_5784
*552 FILLER_0_5800
*553 FILLER_0_5816
*554 FILLER_0_584
*555 FILLER_0_5864
*556 FILLER_0_5880
*557 FILLER_0_5896
*558 FILLER_0_5912
*559 FILLER_0_5928
*560 FILLER_0_5944
*561 FILLER_0_5960
*562 FILLER_0_5976
*563 FILLER_0_5992
*564 FILLER_0_600
*565 FILLER_0_6008
*566 FILLER_0_6024
*567 FILLER_0_6040
*568 FILLER_0_6056
*569 FILLER_0_6072
*570 FILLER_0_6088
*571 FILLER_0_6104
*572 FILLER_0_6120
*573 FILLER_0_6136
*574 FILLER_0_6152
*575 FILLER_0_616
*576 FILLER_0_6168
*577 FILLER_0_6184
*578 FILLER_0_6200
*579 FILLER_0_6216
*580 FILLER_0_6232
*581 FILLER_0_6248
*582 FILLER_0_6264
*583 FILLER_0_6280
*584 FILLER_0_6296
*585 FILLER_0_6312
*586 FILLER_0_632
*587 FILLER_0_6328
*588 FILLER_0_6344
*589 FILLER_0_6360
*590 FILLER_0_6376
*591 FILLER_0_6392
*592 FILLER_0_64
*593 FILLER_0_6408
*594 FILLER_0_6424
*595 FILLER_0_6440
*596 FILLER_0_6456
*597 FILLER_0_6472
*598 FILLER_0_648
*599 FILLER_0_6488
*600 FILLER_0_6504
*601 FILLER_0_6520
*602 FILLER_0_6536
*603 FILLER_0_6552
*604 FILLER_0_6568
*605 FILLER_0_6584
*606 FILLER_0_6600
*607 FILLER_0_6616
*608 FILLER_0_6632
*609 FILLER_0_664
*610 FILLER_0_6648
*611 FILLER_0_6664
*612 FILLER_0_6680
*613 FILLER_0_6696
*614 FILLER_0_6712
*615 FILLER_0_6760
*616 FILLER_0_6776
*617 FILLER_0_6792
*618 FILLER_0_680
*619 FILLER_0_6808
*620 FILLER_0_6824
*621 FILLER_0_6840
*622 FILLER_0_6856
*623 FILLER_0_6872
*624 FILLER_0_6888
*625 FILLER_0_6904
*626 FILLER_0_6920
*627 FILLER_0_6936
*628 FILLER_0_6952
*629 FILLER_0_696
*630 FILLER_0_6968
*631 FILLER_0_6984
*632 FILLER_0_7000
*633 FILLER_0_7016
*634 FILLER_0_7032
*635 FILLER_0_7048
*636 FILLER_0_7064
*637 FILLER_0_7080
*638 FILLER_0_7096
*639 FILLER_0_7112
*640 FILLER_0_712
*641 FILLER_0_7128
*642 FILLER_0_7144
*643 FILLER_0_7160
*644 FILLER_0_7176
*645 FILLER_0_7192
*646 FILLER_0_7208
*647 FILLER_0_7224
*648 FILLER_0_7240
*649 FILLER_0_7256
*650 FILLER_0_7272
*651 FILLER_0_728
*652 FILLER_0_7288
*653 FILLER_0_7304
*654 FILLER_0_7320
*655 FILLER_0_7336
*656 FILLER_0_7352
*657 FILLER_0_7368
*658 FILLER_0_7384
*659 FILLER_0_7400
*660 FILLER_0_7416
*661 FILLER_0_7432
*662 FILLER_0_744
*663 FILLER_0_7448
*664 FILLER_0_7464
*665 FILLER_0_7480
*666 FILLER_0_7496
*667 FILLER_0_7512
*668 FILLER_0_7528
*669 FILLER_0_7544
*670 FILLER_0_7560
*671 FILLER_0_7576
*672 FILLER_0_7592
*673 FILLER_0_760
*674 FILLER_0_7608
*675 FILLER_0_7656
*676 FILLER_0_7672
*677 FILLER_0_7688
*678 FILLER_0_7704
*679 FILLER_0_7720
*680 FILLER_0_7736
*681 FILLER_0_7752
*682 FILLER_0_776
*683 FILLER_0_7768
*684 FILLER_0_7784
*685 FILLER_0_7800
*686 FILLER_0_7816
*687 FILLER_0_7832
*688 FILLER_0_7848
*689 FILLER_0_7864
*690 FILLER_0_7880
*691 FILLER_0_7896
*692 FILLER_0_7912
*693 FILLER_0_792
*694 FILLER_0_7928
*695 FILLER_0_7944
*696 FILLER_0_7960
*697 FILLER_0_7976
*698 FILLER_0_7992
*699 FILLER_0_80
*700 FILLER_0_8008
*701 FILLER_0_8024
*702 FILLER_0_8040
*703 FILLER_0_8056
*704 FILLER_0_8072
*705 FILLER_0_808
*706 FILLER_0_8088
*707 FILLER_0_8104
*708 FILLER_0_8120
*709 FILLER_0_8136
*710 FILLER_0_8152
*711 FILLER_0_8168
*712 FILLER_0_8184
*713 FILLER_0_8200
*714 FILLER_0_8216
*715 FILLER_0_8232
*716 FILLER_0_824
*717 FILLER_0_8248
*718 FILLER_0_8264
*719 FILLER_0_8280
*720 FILLER_0_8296
*721 FILLER_0_8312
*722 FILLER_0_8328
*723 FILLER_0_8344
*724 FILLER_0_8360
*725 FILLER_0_8376
*726 FILLER_0_8392
*727 FILLER_0_840
*728 FILLER_0_8408
*729 FILLER_0_8424
*730 FILLER_0_8440
*731 FILLER_0_8456
*732 FILLER_0_8472
*733 FILLER_0_8488
*734 FILLER_0_8504
*735 FILLER_0_8552
*736 FILLER_0_856
*737 FILLER_0_8568
*738 FILLER_0_8584
*739 FILLER_0_8600
*740 FILLER_0_8616
*741 FILLER_0_8632
*742 FILLER_0_8648
*743 FILLER_0_8664
*744 FILLER_0_8680
*745 FILLER_0_8696
*746 FILLER_0_8712
*747 FILLER_0_872
*748 FILLER_0_8728
*749 FILLER_0_8744
*750 FILLER_0_8760
*751 FILLER_0_8776
*752 FILLER_0_8792
*753 FILLER_0_8808
*754 FILLER_0_8824
*755 FILLER_0_8840
*756 FILLER_0_8856
*757 FILLER_0_8872
*758 FILLER_0_888
*759 FILLER_0_8888
*760 FILLER_0_8904
*761 FILLER_0_8920
*762 FILLER_0_8936
*763 FILLER_0_8952
*764 FILLER_0_8968
*765 FILLER_0_904
*766 FILLER_0_920
*767 FILLER_0_936
*768 FILLER_0_952
*769 FILLER_0_96
*770 FILLER_0_968
*771 FILLER_0_984
*772 FILLER_10_0
*773 FILLER_10_1008
*774 FILLER_10_1024
*775 FILLER_10_1040
*776 FILLER_10_1056
*777 FILLER_10_1072
*778 FILLER_10_1088
*779 FILLER_10_1104
*780 FILLER_10_112
*781 FILLER_10_1120
*782 FILLER_10_1136
*783 FILLER_10_1152
*784 FILLER_10_1168
*785 FILLER_10_1184
*786 FILLER_10_1200
*787 FILLER_10_1216
*788 FILLER_10_1232
*789 FILLER_10_1248
*790 FILLER_10_1264
*791 FILLER_10_128
*792 FILLER_10_1280
*793 FILLER_10_1296
*794 FILLER_10_1312
*795 FILLER_10_1328
*796 FILLER_10_1344
*797 FILLER_10_1360
*798 FILLER_10_1376
*799 FILLER_10_1392
*800 FILLER_10_1408
*801 FILLER_10_1424
*802 FILLER_10_144
*803 FILLER_10_1440
*804 FILLER_10_1456
*805 FILLER_10_1472
*806 FILLER_10_1488
*807 FILLER_10_1504
*808 FILLER_10_1520
*809 FILLER_10_1536
*810 FILLER_10_1552
*811 FILLER_10_1568
*812 FILLER_10_1584
*813 FILLER_10_16
*814 FILLER_10_160
*815 FILLER_10_1600
*816 FILLER_10_1616
*817 FILLER_10_1632
*818 FILLER_10_1648
*819 FILLER_10_1664
*820 FILLER_10_1680
*821 FILLER_10_1696
*822 FILLER_10_1712
*823 FILLER_10_1728
*824 FILLER_10_1744
*825 FILLER_10_176
*826 FILLER_10_1760
*827 FILLER_10_1776
*828 FILLER_10_1792
*829 FILLER_10_1808
*830 FILLER_10_1824
*831 FILLER_10_1840
*832 FILLER_10_1856
*833 FILLER_10_1872
*834 FILLER_10_1888
*835 FILLER_10_1904
*836 FILLER_10_192
*837 FILLER_10_1920
*838 FILLER_10_1936
*839 FILLER_10_1952
*840 FILLER_10_1968
*841 FILLER_10_1984
*842 FILLER_10_2000
*843 FILLER_10_2016
*844 FILLER_10_2032
*845 FILLER_10_2048
*846 FILLER_10_2064
*847 FILLER_10_208
*848 FILLER_10_2080
*849 FILLER_10_2096
*850 FILLER_10_2112
*851 FILLER_10_2128
*852 FILLER_10_2144
*853 FILLER_10_2160
*854 FILLER_10_2176
*855 FILLER_10_2192
*856 FILLER_10_2208
*857 FILLER_10_2224
*858 FILLER_10_224
*859 FILLER_10_2240
*860 FILLER_10_2256
*861 FILLER_10_2272
*862 FILLER_10_2288
*863 FILLER_10_2304
*864 FILLER_10_2320
*865 FILLER_10_2336
*866 FILLER_10_2352
*867 FILLER_10_2368
*868 FILLER_10_2384
*869 FILLER_10_240
*870 FILLER_10_2400
*871 FILLER_10_2416
*872 FILLER_10_2432
*873 FILLER_10_2448
*874 FILLER_10_2464
*875 FILLER_10_2480
*876 FILLER_10_2496
*877 FILLER_10_2512
*878 FILLER_10_2528
*879 FILLER_10_2544
*880 FILLER_10_256
*881 FILLER_10_2560
*882 FILLER_10_2576
*883 FILLER_10_2592
*884 FILLER_10_2608
*885 FILLER_10_2624
*886 FILLER_10_2640
*887 FILLER_10_2656
*888 FILLER_10_2672
*889 FILLER_10_2688
*890 FILLER_10_2704
*891 FILLER_10_272
*892 FILLER_10_2720
*893 FILLER_10_2736
*894 FILLER_10_2752
*895 FILLER_10_2768
*896 FILLER_10_2784
*897 FILLER_10_2800
*898 FILLER_10_2816
*899 FILLER_10_2832
*900 FILLER_10_2848
*901 FILLER_10_2864
*902 FILLER_10_288
*903 FILLER_10_2880
*904 FILLER_10_2896
*905 FILLER_10_2912
*906 FILLER_10_2928
*907 FILLER_10_2944
*908 FILLER_10_2960
*909 FILLER_10_2976
*910 FILLER_10_2992
*911 FILLER_10_3008
*912 FILLER_10_3024
*913 FILLER_10_304
*914 FILLER_10_3040
*915 FILLER_10_3056
*916 FILLER_10_3072
*917 FILLER_10_3088
*918 FILLER_10_3104
*919 FILLER_10_3120
*920 FILLER_10_3136
*921 FILLER_10_3152
*922 FILLER_10_3168
*923 FILLER_10_3184
*924 FILLER_10_32
*925 FILLER_10_320
*926 FILLER_10_3200
*927 FILLER_10_3216
*928 FILLER_10_3232
*929 FILLER_10_3248
*930 FILLER_10_3264
*931 FILLER_10_3280
*932 FILLER_10_3296
*933 FILLER_10_3312
*934 FILLER_10_3328
*935 FILLER_10_3344
*936 FILLER_10_336
*937 FILLER_10_3360
*938 FILLER_10_3376
*939 FILLER_10_3392
*940 FILLER_10_3408
*941 FILLER_10_3424
*942 FILLER_10_3440
*943 FILLER_10_3456
*944 FILLER_10_3472
*945 FILLER_10_3488
*946 FILLER_10_3504
*947 FILLER_10_352
*948 FILLER_10_3520
*949 FILLER_10_3536
*950 FILLER_10_3552
*951 FILLER_10_3568
*952 FILLER_10_3584
*953 FILLER_10_3600
*954 FILLER_10_3616
*955 FILLER_10_3632
*956 FILLER_10_3648
*957 FILLER_10_3664
*958 FILLER_10_368
*959 FILLER_10_3680
*960 FILLER_10_3696
*961 FILLER_10_3712
*962 FILLER_10_3728
*963 FILLER_10_3744
*964 FILLER_10_3760
*965 FILLER_10_3776
*966 FILLER_10_3792
*967 FILLER_10_3808
*968 FILLER_10_3824
*969 FILLER_10_384
*970 FILLER_10_3840
*971 FILLER_10_3856
*972 FILLER_10_3872
*973 FILLER_10_3888
*974 FILLER_10_3904
*975 FILLER_10_3920
*976 FILLER_10_3936
*977 FILLER_10_3952
*978 FILLER_10_3968
*979 FILLER_10_3984
*980 FILLER_10_400
*981 FILLER_10_4000
*982 FILLER_10_4016
*983 FILLER_10_4032
*984 FILLER_10_4048
*985 FILLER_10_4064
*986 FILLER_10_4080
*987 FILLER_10_4096
*988 FILLER_10_4112
*989 FILLER_10_4128
*990 FILLER_10_4144
*991 FILLER_10_416
*992 FILLER_10_4160
*993 FILLER_10_4176
*994 FILLER_10_4192
*995 FILLER_10_4208
*996 FILLER_10_4224
*997 FILLER_10_4240
*998 FILLER_10_4256
*999 FILLER_10_4272
*1000 FILLER_10_4288
*1001 FILLER_10_4304
*1002 FILLER_10_432
*1003 FILLER_10_4320
*1004 FILLER_10_4336
*1005 FILLER_10_4352
*1006 FILLER_10_4368
*1007 FILLER_10_4384
*1008 FILLER_10_4400
*1009 FILLER_10_4416
*1010 FILLER_10_4432
*1011 FILLER_10_4448
*1012 FILLER_10_4464
*1013 FILLER_10_448
*1014 FILLER_10_4480
*1015 FILLER_10_4496
*1016 FILLER_10_4512
*1017 FILLER_10_4528
*1018 FILLER_10_4544
*1019 FILLER_10_4560
*1020 FILLER_10_4576
*1021 FILLER_10_4592
*1022 FILLER_10_4608
*1023 FILLER_10_4624
*1024 FILLER_10_464
*1025 FILLER_10_4640
*1026 FILLER_10_4656
*1027 FILLER_10_4672
*1028 FILLER_10_4688
*1029 FILLER_10_4704
*1030 FILLER_10_4720
*1031 FILLER_10_4736
*1032 FILLER_10_4752
*1033 FILLER_10_4768
*1034 FILLER_10_4784
*1035 FILLER_10_48
*1036 FILLER_10_480
*1037 FILLER_10_4800
*1038 FILLER_10_4816
*1039 FILLER_10_4832
*1040 FILLER_10_4848
*1041 FILLER_10_4864
*1042 FILLER_10_4880
*1043 FILLER_10_4896
*1044 FILLER_10_4912
*1045 FILLER_10_4928
*1046 FILLER_10_4944
*1047 FILLER_10_496
*1048 FILLER_10_4960
*1049 FILLER_10_4976
*1050 FILLER_10_4992
*1051 FILLER_10_5008
*1052 FILLER_10_5024
*1053 FILLER_10_5040
*1054 FILLER_10_5056
*1055 FILLER_10_5072
*1056 FILLER_10_5088
*1057 FILLER_10_5104
*1058 FILLER_10_512
*1059 FILLER_10_5120
*1060 FILLER_10_5136
*1061 FILLER_10_5152
*1062 FILLER_10_5168
*1063 FILLER_10_5184
*1064 FILLER_10_5200
*1065 FILLER_10_5216
*1066 FILLER_10_5232
*1067 FILLER_10_5248
*1068 FILLER_10_5264
*1069 FILLER_10_528
*1070 FILLER_10_5280
*1071 FILLER_10_5296
*1072 FILLER_10_5312
*1073 FILLER_10_5328
*1074 FILLER_10_5344
*1075 FILLER_10_5360
*1076 FILLER_10_5376
*1077 FILLER_10_5392
*1078 FILLER_10_5408
*1079 FILLER_10_5424
*1080 FILLER_10_544
*1081 FILLER_10_5440
*1082 FILLER_10_5456
*1083 FILLER_10_5472
*1084 FILLER_10_5488
*1085 FILLER_10_5504
*1086 FILLER_10_5520
*1087 FILLER_10_5536
*1088 FILLER_10_5552
*1089 FILLER_10_5568
*1090 FILLER_10_5584
*1091 FILLER_10_560
*1092 FILLER_10_5600
*1093 FILLER_10_5616
*1094 FILLER_10_5632
*1095 FILLER_10_5648
*1096 FILLER_10_5664
*1097 FILLER_10_5680
*1098 FILLER_10_5696
*1099 FILLER_10_5712
*1100 FILLER_10_5728
*1101 FILLER_10_5744
*1102 FILLER_10_576
*1103 FILLER_10_5760
*1104 FILLER_10_5776
*1105 FILLER_10_5792
*1106 FILLER_10_5808
*1107 FILLER_10_5824
*1108 FILLER_10_5840
*1109 FILLER_10_5856
*1110 FILLER_10_5872
*1111 FILLER_10_5888
*1112 FILLER_10_5904
*1113 FILLER_10_592
*1114 FILLER_10_5920
*1115 FILLER_10_5936
*1116 FILLER_10_5952
*1117 FILLER_10_5968
*1118 FILLER_10_5984
*1119 FILLER_10_6000
*1120 FILLER_10_6016
*1121 FILLER_10_6032
*1122 FILLER_10_6048
*1123 FILLER_10_6064
*1124 FILLER_10_608
*1125 FILLER_10_6080
*1126 FILLER_10_6096
*1127 FILLER_10_6112
*1128 FILLER_10_6128
*1129 FILLER_10_6144
*1130 FILLER_10_6160
*1131 FILLER_10_6176
*1132 FILLER_10_6192
*1133 FILLER_10_6208
*1134 FILLER_10_6224
*1135 FILLER_10_624
*1136 FILLER_10_6240
*1137 FILLER_10_6256
*1138 FILLER_10_6272
*1139 FILLER_10_6288
*1140 FILLER_10_6304
*1141 FILLER_10_6320
*1142 FILLER_10_6336
*1143 FILLER_10_6352
*1144 FILLER_10_6368
*1145 FILLER_10_6384
*1146 FILLER_10_64
*1147 FILLER_10_640
*1148 FILLER_10_6400
*1149 FILLER_10_6416
*1150 FILLER_10_6432
*1151 FILLER_10_6448
*1152 FILLER_10_6464
*1153 FILLER_10_6480
*1154 FILLER_10_6496
*1155 FILLER_10_6512
*1156 FILLER_10_6528
*1157 FILLER_10_6544
*1158 FILLER_10_656
*1159 FILLER_10_6560
*1160 FILLER_10_6576
*1161 FILLER_10_6592
*1162 FILLER_10_6608
*1163 FILLER_10_6624
*1164 FILLER_10_6640
*1165 FILLER_10_6656
*1166 FILLER_10_6672
*1167 FILLER_10_6688
*1168 FILLER_10_6704
*1169 FILLER_10_672
*1170 FILLER_10_6720
*1171 FILLER_10_6736
*1172 FILLER_10_6752
*1173 FILLER_10_6768
*1174 FILLER_10_6784
*1175 FILLER_10_6800
*1176 FILLER_10_6816
*1177 FILLER_10_6832
*1178 FILLER_10_6848
*1179 FILLER_10_6864
*1180 FILLER_10_688
*1181 FILLER_10_6880
*1182 FILLER_10_6896
*1183 FILLER_10_6912
*1184 FILLER_10_6928
*1185 FILLER_10_6944
*1186 FILLER_10_6960
*1187 FILLER_10_6976
*1188 FILLER_10_6992
*1189 FILLER_10_7008
*1190 FILLER_10_7024
*1191 FILLER_10_704
*1192 FILLER_10_7040
*1193 FILLER_10_7056
*1194 FILLER_10_7072
*1195 FILLER_10_7088
*1196 FILLER_10_7104
*1197 FILLER_10_7120
*1198 FILLER_10_7136
*1199 FILLER_10_7152
*1200 FILLER_10_7168
*1201 FILLER_10_7184
*1202 FILLER_10_720
*1203 FILLER_10_7200
*1204 FILLER_10_7216
*1205 FILLER_10_7232
*1206 FILLER_10_7248
*1207 FILLER_10_7264
*1208 FILLER_10_7280
*1209 FILLER_10_7296
*1210 FILLER_10_7312
*1211 FILLER_10_7328
*1212 FILLER_10_7344
*1213 FILLER_10_736
*1214 FILLER_10_7360
*1215 FILLER_10_7376
*1216 FILLER_10_7392
*1217 FILLER_10_7408
*1218 FILLER_10_7424
*1219 FILLER_10_7440
*1220 FILLER_10_7456
*1221 FILLER_10_7472
*1222 FILLER_10_7488
*1223 FILLER_10_7504
*1224 FILLER_10_752
*1225 FILLER_10_7520
*1226 FILLER_10_7536
*1227 FILLER_10_7552
*1228 FILLER_10_7568
*1229 FILLER_10_7584
*1230 FILLER_10_7600
*1231 FILLER_10_7616
*1232 FILLER_10_7632
*1233 FILLER_10_7648
*1234 FILLER_10_7664
*1235 FILLER_10_768
*1236 FILLER_10_7680
*1237 FILLER_10_7696
*1238 FILLER_10_7712
*1239 FILLER_10_7728
*1240 FILLER_10_7744
*1241 FILLER_10_7760
*1242 FILLER_10_7776
*1243 FILLER_10_7792
*1244 FILLER_10_7808
*1245 FILLER_10_7824
*1246 FILLER_10_784
*1247 FILLER_10_7840
*1248 FILLER_10_7856
*1249 FILLER_10_7872
*1250 FILLER_10_7888
*1251 FILLER_10_7904
*1252 FILLER_10_7920
*1253 FILLER_10_7936
*1254 FILLER_10_7952
*1255 FILLER_10_7968
*1256 FILLER_10_7984
*1257 FILLER_10_80
*1258 FILLER_10_800
*1259 FILLER_10_8000
*1260 FILLER_10_8016
*1261 FILLER_10_8032
*1262 FILLER_10_8048
*1263 FILLER_10_8064
*1264 FILLER_10_8080
*1265 FILLER_10_8096
*1266 FILLER_10_8112
*1267 FILLER_10_8128
*1268 FILLER_10_8144
*1269 FILLER_10_816
*1270 FILLER_10_8160
*1271 FILLER_10_8176
*1272 FILLER_10_8192
*1273 FILLER_10_8208
*1274 FILLER_10_8224
*1275 FILLER_10_8240
*1276 FILLER_10_8256
*1277 FILLER_10_8272
*1278 FILLER_10_8288
*1279 FILLER_10_8304
*1280 FILLER_10_832
*1281 FILLER_10_8320
*1282 FILLER_10_8336
*1283 FILLER_10_8352
*1284 FILLER_10_8368
*1285 FILLER_10_8384
*1286 FILLER_10_8400
*1287 FILLER_10_8416
*1288 FILLER_10_8432
*1289 FILLER_10_8448
*1290 FILLER_10_8464
*1291 FILLER_10_848
*1292 FILLER_10_8480
*1293 FILLER_10_8496
*1294 FILLER_10_8512
*1295 FILLER_10_8528
*1296 FILLER_10_8544
*1297 FILLER_10_8560
*1298 FILLER_10_8576
*1299 FILLER_10_8592
*1300 FILLER_10_8608
*1301 FILLER_10_8624
*1302 FILLER_10_864
*1303 FILLER_10_8640
*1304 FILLER_10_8656
*1305 FILLER_10_8672
*1306 FILLER_10_8688
*1307 FILLER_10_8704
*1308 FILLER_10_8720
*1309 FILLER_10_8736
*1310 FILLER_10_8752
*1311 FILLER_10_8768
*1312 FILLER_10_8784
*1313 FILLER_10_880
*1314 FILLER_10_8800
*1315 FILLER_10_8816
*1316 FILLER_10_8832
*1317 FILLER_10_8848
*1318 FILLER_10_8864
*1319 FILLER_10_8880
*1320 FILLER_10_8896
*1321 FILLER_10_8912
*1322 FILLER_10_8928
*1323 FILLER_10_8944
*1324 FILLER_10_896
*1325 FILLER_10_8960
*1326 FILLER_10_912
*1327 FILLER_10_928
*1328 FILLER_10_944
*1329 FILLER_10_96
*1330 FILLER_10_960
*1331 FILLER_10_976
*1332 FILLER_10_992
*1333 FILLER_11_0
*1334 FILLER_11_1008
*1335 FILLER_11_1024
*1336 FILLER_11_1040
*1337 FILLER_11_1056
*1338 FILLER_11_1072
*1339 FILLER_11_1088
*1340 FILLER_11_1104
*1341 FILLER_11_112
*1342 FILLER_11_1120
*1343 FILLER_11_1136
*1344 FILLER_11_1152
*1345 FILLER_11_1168
*1346 FILLER_11_1184
*1347 FILLER_11_1200
*1348 FILLER_11_1216
*1349 FILLER_11_1232
*1350 FILLER_11_1248
*1351 FILLER_11_1264
*1352 FILLER_11_128
*1353 FILLER_11_1280
*1354 FILLER_11_1296
*1355 FILLER_11_1312
*1356 FILLER_11_1328
*1357 FILLER_11_1344
*1358 FILLER_11_1360
*1359 FILLER_11_1376
*1360 FILLER_11_1392
*1361 FILLER_11_1408
*1362 FILLER_11_1424
*1363 FILLER_11_144
*1364 FILLER_11_1440
*1365 FILLER_11_1456
*1366 FILLER_11_1472
*1367 FILLER_11_1488
*1368 FILLER_11_1504
*1369 FILLER_11_1520
*1370 FILLER_11_1536
*1371 FILLER_11_1552
*1372 FILLER_11_1568
*1373 FILLER_11_1584
*1374 FILLER_11_16
*1375 FILLER_11_160
*1376 FILLER_11_1600
*1377 FILLER_11_1616
*1378 FILLER_11_1632
*1379 FILLER_11_1648
*1380 FILLER_11_1664
*1381 FILLER_11_1680
*1382 FILLER_11_1696
*1383 FILLER_11_1712
*1384 FILLER_11_1728
*1385 FILLER_11_1744
*1386 FILLER_11_176
*1387 FILLER_11_1760
*1388 FILLER_11_1776
*1389 FILLER_11_1792
*1390 FILLER_11_1808
*1391 FILLER_11_1824
*1392 FILLER_11_1840
*1393 FILLER_11_1856
*1394 FILLER_11_1872
*1395 FILLER_11_1888
*1396 FILLER_11_1904
*1397 FILLER_11_192
*1398 FILLER_11_1920
*1399 FILLER_11_1936
*1400 FILLER_11_1952
*1401 FILLER_11_1968
*1402 FILLER_11_1984
*1403 FILLER_11_2000
*1404 FILLER_11_2016
*1405 FILLER_11_2032
*1406 FILLER_11_2048
*1407 FILLER_11_2064
*1408 FILLER_11_208
*1409 FILLER_11_2080
*1410 FILLER_11_2096
*1411 FILLER_11_2112
*1412 FILLER_11_2128
*1413 FILLER_11_2144
*1414 FILLER_11_2160
*1415 FILLER_11_2176
*1416 FILLER_11_2192
*1417 FILLER_11_2208
*1418 FILLER_11_2224
*1419 FILLER_11_224
*1420 FILLER_11_2240
*1421 FILLER_11_2256
*1422 FILLER_11_2272
*1423 FILLER_11_2288
*1424 FILLER_11_2304
*1425 FILLER_11_2320
*1426 FILLER_11_2336
*1427 FILLER_11_2352
*1428 FILLER_11_2368
*1429 FILLER_11_2384
*1430 FILLER_11_240
*1431 FILLER_11_2400
*1432 FILLER_11_2416
*1433 FILLER_11_2432
*1434 FILLER_11_2448
*1435 FILLER_11_2464
*1436 FILLER_11_2480
*1437 FILLER_11_2496
*1438 FILLER_11_2512
*1439 FILLER_11_2528
*1440 FILLER_11_2544
*1441 FILLER_11_256
*1442 FILLER_11_2560
*1443 FILLER_11_2576
*1444 FILLER_11_2592
*1445 FILLER_11_2608
*1446 FILLER_11_2624
*1447 FILLER_11_2640
*1448 FILLER_11_2656
*1449 FILLER_11_2672
*1450 FILLER_11_2688
*1451 FILLER_11_2704
*1452 FILLER_11_272
*1453 FILLER_11_2720
*1454 FILLER_11_2736
*1455 FILLER_11_2752
*1456 FILLER_11_2768
*1457 FILLER_11_2784
*1458 FILLER_11_2800
*1459 FILLER_11_2816
*1460 FILLER_11_2832
*1461 FILLER_11_2848
*1462 FILLER_11_2864
*1463 FILLER_11_288
*1464 FILLER_11_2880
*1465 FILLER_11_2896
*1466 FILLER_11_2912
*1467 FILLER_11_2928
*1468 FILLER_11_2944
*1469 FILLER_11_2960
*1470 FILLER_11_2976
*1471 FILLER_11_2992
*1472 FILLER_11_3008
*1473 FILLER_11_3024
*1474 FILLER_11_304
*1475 FILLER_11_3040
*1476 FILLER_11_3056
*1477 FILLER_11_3072
*1478 FILLER_11_3088
*1479 FILLER_11_3104
*1480 FILLER_11_3120
*1481 FILLER_11_3136
*1482 FILLER_11_3152
*1483 FILLER_11_3168
*1484 FILLER_11_3184
*1485 FILLER_11_32
*1486 FILLER_11_320
*1487 FILLER_11_3200
*1488 FILLER_11_3216
*1489 FILLER_11_3232
*1490 FILLER_11_3248
*1491 FILLER_11_3264
*1492 FILLER_11_3280
*1493 FILLER_11_3296
*1494 FILLER_11_3312
*1495 FILLER_11_3328
*1496 FILLER_11_3344
*1497 FILLER_11_336
*1498 FILLER_11_3360
*1499 FILLER_11_3376
*1500 FILLER_11_3392
*1501 FILLER_11_3408
*1502 FILLER_11_3424
*1503 FILLER_11_3440
*1504 FILLER_11_3456
*1505 FILLER_11_3472
*1506 FILLER_11_3488
*1507 FILLER_11_3504
*1508 FILLER_11_352
*1509 FILLER_11_3520
*1510 FILLER_11_3536
*1511 FILLER_11_3552
*1512 FILLER_11_3568
*1513 FILLER_11_3584
*1514 FILLER_11_3600
*1515 FILLER_11_3616
*1516 FILLER_11_3632
*1517 FILLER_11_3648
*1518 FILLER_11_3664
*1519 FILLER_11_368
*1520 FILLER_11_3680
*1521 FILLER_11_3696
*1522 FILLER_11_3712
*1523 FILLER_11_3728
*1524 FILLER_11_3744
*1525 FILLER_11_3760
*1526 FILLER_11_3776
*1527 FILLER_11_3792
*1528 FILLER_11_3808
*1529 FILLER_11_3824
*1530 FILLER_11_384
*1531 FILLER_11_3840
*1532 FILLER_11_3856
*1533 FILLER_11_3872
*1534 FILLER_11_3888
*1535 FILLER_11_3904
*1536 FILLER_11_3920
*1537 FILLER_11_3936
*1538 FILLER_11_3952
*1539 FILLER_11_3968
*1540 FILLER_11_3984
*1541 FILLER_11_400
*1542 FILLER_11_4000
*1543 FILLER_11_4016
*1544 FILLER_11_4032
*1545 FILLER_11_4048
*1546 FILLER_11_4064
*1547 FILLER_11_4080
*1548 FILLER_11_4096
*1549 FILLER_11_4112
*1550 FILLER_11_4128
*1551 FILLER_11_4144
*1552 FILLER_11_416
*1553 FILLER_11_4160
*1554 FILLER_11_4176
*1555 FILLER_11_4192
*1556 FILLER_11_4208
*1557 FILLER_11_4224
*1558 FILLER_11_4240
*1559 FILLER_11_4256
*1560 FILLER_11_4272
*1561 FILLER_11_4288
*1562 FILLER_11_4304
*1563 FILLER_11_432
*1564 FILLER_11_4320
*1565 FILLER_11_4336
*1566 FILLER_11_4352
*1567 FILLER_11_4368
*1568 FILLER_11_4384
*1569 FILLER_11_4400
*1570 FILLER_11_4416
*1571 FILLER_11_4432
*1572 FILLER_11_4448
*1573 FILLER_11_4464
*1574 FILLER_11_448
*1575 FILLER_11_4480
*1576 FILLER_11_4496
*1577 FILLER_11_4512
*1578 FILLER_11_4528
*1579 FILLER_11_4544
*1580 FILLER_11_4560
*1581 FILLER_11_4576
*1582 FILLER_11_4592
*1583 FILLER_11_4608
*1584 FILLER_11_4624
*1585 FILLER_11_464
*1586 FILLER_11_4640
*1587 FILLER_11_4656
*1588 FILLER_11_4672
*1589 FILLER_11_4688