*SPEF "ieee 1481-1999"
*DESIGN "ffra_wrapper"
*DATE "11:11:11 Fri 11 11, 1111"
*VENDOR "OpenRCX"
*PROGRAM "Parallel Extraction"
*VERSION "1.0"
*DESIGN_FLOW "NAME_SCOPE LOCAL" "PIN_CAP NONE"
*DIVIDER /
*DELIMITER :
*BUS_DELIMITER []
*T_UNIT 1 NS
*C_UNIT 1 PF
*R_UNIT 1 OHM
*L_UNIT 1 HENRY

*NAME_MAP
*1 io_in[0]
*2 io_in[10]
*3 io_in[11]
*4 io_in[12]
*5 io_in[13]
*6 io_in[14]
*7 io_in[15]
*8 io_in[16]
*9 io_in[17]
*10 io_in[18]
*11 io_in[19]
*12 io_in[1]
*13 io_in[20]
*14 io_in[21]
*15 io_in[22]
*16 io_in[23]
*17 io_in[24]
*18 io_in[25]
*19 io_in[26]
*20 io_in[27]
*21 io_in[28]
*22 io_in[29]
*23 io_in[2]
*24 io_in[30]
*25 io_in[31]
*26 io_in[32]
*27 io_in[33]
*28 io_in[34]
*29 io_in[35]
*30 io_in[36]
*31 io_in[37]
*32 io_in[3]
*33 io_in[4]
*34 io_in[5]
*35 io_in[6]
*36 io_in[7]
*37 io_in[8]
*38 io_in[9]
*39 io_oeb[0]
*40 io_oeb[10]
*41 io_oeb[11]
*42 io_oeb[12]
*43 io_oeb[13]
*44 io_oeb[14]
*45 io_oeb[15]
*46 io_oeb[16]
*47 io_oeb[17]
*48 io_oeb[18]
*49 io_oeb[19]
*50 io_oeb[1]
*51 io_oeb[20]
*52 io_oeb[21]
*53 io_oeb[22]
*54 io_oeb[23]
*55 io_oeb[24]
*56 io_oeb[25]
*57 io_oeb[26]
*58 io_oeb[27]
*59 io_oeb[28]
*60 io_oeb[29]
*61 io_oeb[2]
*62 io_oeb[30]
*63 io_oeb[31]
*64 io_oeb[32]
*65 io_oeb[33]
*66 io_oeb[34]
*67 io_oeb[35]
*68 io_oeb[36]
*69 io_oeb[37]
*70 io_oeb[3]
*71 io_oeb[4]
*72 io_oeb[5]
*73 io_oeb[6]
*74 io_oeb[7]
*75 io_oeb[8]
*76 io_oeb[9]
*77 io_out[0]
*78 io_out[10]
*79 io_out[11]
*80 io_out[12]
*81 io_out[13]
*82 io_out[14]
*83 io_out[15]
*84 io_out[16]
*85 io_out[17]
*86 io_out[18]
*87 io_out[19]
*88 io_out[1]
*89 io_out[20]
*90 io_out[21]
*91 io_out[22]
*92 io_out[23]
*93 io_out[24]
*94 io_out[25]
*95 io_out[26]
*96 io_out[27]
*97 io_out[28]
*98 io_out[29]
*99 io_out[2]
*100 io_out[30]
*101 io_out[31]
*102 io_out[32]
*103 io_out[33]
*104 io_out[34]
*105 io_out[35]
*106 io_out[36]
*107 io_out[37]
*108 io_out[3]
*109 io_out[4]
*110 io_out[5]
*111 io_out[6]
*112 io_out[7]
*113 io_out[8]
*114 io_out[9]
*115 la_data_in[0]
*116 la_data_in[10]
*117 la_data_in[11]
*118 la_data_in[12]
*119 la_data_in[13]
*120 la_data_in[14]
*121 la_data_in[15]
*122 la_data_in[16]
*123 la_data_in[17]
*124 la_data_in[18]
*125 la_data_in[19]
*126 la_data_in[1]
*127 la_data_in[20]
*128 la_data_in[21]
*129 la_data_in[22]
*130 la_data_in[23]
*131 la_data_in[24]
*132 la_data_in[25]
*133 la_data_in[26]
*134 la_data_in[27]
*135 la_data_in[28]
*136 la_data_in[29]
*137 la_data_in[2]
*138 la_data_in[30]
*139 la_data_in[31]
*140 la_data_in[32]
*141 la_data_in[33]
*142 la_data_in[34]
*143 la_data_in[35]
*144 la_data_in[36]
*145 la_data_in[37]
*146 la_data_in[38]
*147 la_data_in[39]
*148 la_data_in[3]
*149 la_data_in[40]
*150 la_data_in[41]
*151 la_data_in[42]
*152 la_data_in[43]
*153 la_data_in[44]
*154 la_data_in[45]
*155 la_data_in[46]
*156 la_data_in[47]
*157 la_data_in[48]
*158 la_data_in[49]
*159 la_data_in[4]
*160 la_data_in[50]
*161 la_data_in[51]
*162 la_data_in[52]
*163 la_data_in[53]
*164 la_data_in[54]
*165 la_data_in[55]
*166 la_data_in[56]
*167 la_data_in[57]
*168 la_data_in[58]
*169 la_data_in[59]
*170 la_data_in[5]
*171 la_data_in[60]
*172 la_data_in[61]
*173 la_data_in[62]
*174 la_data_in[63]
*175 la_data_in[6]
*176 la_data_in[7]
*177 la_data_in[8]
*178 la_data_in[9]
*179 la_data_out[0]
*180 la_data_out[10]
*181 la_data_out[11]
*182 la_data_out[12]
*183 la_data_out[13]
*184 la_data_out[14]
*185 la_data_out[15]
*186 la_data_out[16]
*187 la_data_out[17]
*188 la_data_out[18]
*189 la_data_out[19]
*190 la_data_out[1]
*191 la_data_out[20]
*192 la_data_out[21]
*193 la_data_out[22]
*194 la_data_out[23]
*195 la_data_out[24]
*196 la_data_out[25]
*197 la_data_out[26]
*198 la_data_out[27]
*199 la_data_out[28]
*200 la_data_out[29]
*201 la_data_out[2]
*202 la_data_out[30]
*203 la_data_out[31]
*204 la_data_out[32]
*205 la_data_out[33]
*206 la_data_out[34]
*207 la_data_out[35]
*208 la_data_out[36]
*209 la_data_out[37]
*210 la_data_out[38]
*211 la_data_out[39]
*212 la_data_out[3]
*213 la_data_out[40]
*214 la_data_out[41]
*215 la_data_out[42]
*216 la_data_out[43]
*217 la_data_out[44]
*218 la_data_out[45]
*219 la_data_out[46]
*220 la_data_out[47]
*221 la_data_out[48]
*222 la_data_out[49]
*223 la_data_out[4]
*224 la_data_out[50]
*225 la_data_out[51]
*226 la_data_out[52]
*227 la_data_out[53]
*228 la_data_out[54]
*229 la_data_out[55]
*230 la_data_out[56]
*231 la_data_out[57]
*232 la_data_out[58]
*233 la_data_out[59]
*234 la_data_out[5]
*235 la_data_out[60]
*236 la_data_out[61]
*237 la_data_out[62]
*238 la_data_out[63]
*239 la_data_out[6]
*240 la_data_out[7]
*241 la_data_out[8]
*242 la_data_out[9]
*243 la_oenb[0]
*244 la_oenb[10]
*245 la_oenb[11]
*246 la_oenb[12]
*247 la_oenb[13]
*248 la_oenb[14]
*249 la_oenb[15]
*250 la_oenb[16]
*251 la_oenb[17]
*252 la_oenb[18]
*253 la_oenb[19]
*254 la_oenb[1]
*255 la_oenb[20]
*256 la_oenb[21]
*257 la_oenb[22]
*258 la_oenb[23]
*259 la_oenb[24]
*260 la_oenb[25]
*261 la_oenb[26]
*262 la_oenb[27]
*263 la_oenb[28]
*264 la_oenb[29]
*265 la_oenb[2]
*266 la_oenb[30]
*267 la_oenb[31]
*268 la_oenb[32]
*269 la_oenb[33]
*270 la_oenb[34]
*271 la_oenb[35]
*272 la_oenb[36]
*273 la_oenb[37]
*274 la_oenb[38]
*275 la_oenb[39]
*276 la_oenb[3]
*277 la_oenb[40]
*278 la_oenb[41]
*279 la_oenb[42]
*280 la_oenb[43]
*281 la_oenb[44]
*282 la_oenb[45]
*283 la_oenb[46]
*284 la_oenb[47]
*285 la_oenb[48]
*286 la_oenb[49]
*287 la_oenb[4]
*288 la_oenb[50]
*289 la_oenb[51]
*290 la_oenb[52]
*291 la_oenb[53]
*292 la_oenb[54]
*293 la_oenb[55]
*294 la_oenb[56]
*295 la_oenb[57]
*296 la_oenb[58]
*297 la_oenb[59]
*298 la_oenb[5]
*299 la_oenb[60]
*300 la_oenb[61]
*301 la_oenb[62]
*302 la_oenb[63]
*303 la_oenb[6]
*304 la_oenb[7]
*305 la_oenb[8]
*306 la_oenb[9]
*307 user_clock2
*308 user_irq[0]
*309 user_irq[1]
*310 user_irq[2]
*313 wb_clk_i
*314 wb_rst_i
*315 wbs_ack_o
*316 wbs_adr_i[0]
*317 wbs_adr_i[10]
*318 wbs_adr_i[11]
*319 wbs_adr_i[12]
*320 wbs_adr_i[13]
*321 wbs_adr_i[14]
*322 wbs_adr_i[15]
*323 wbs_adr_i[16]
*324 wbs_adr_i[17]
*325 wbs_adr_i[18]
*326 wbs_adr_i[19]
*327 wbs_adr_i[1]
*328 wbs_adr_i[20]
*329 wbs_adr_i[21]
*330 wbs_adr_i[22]
*331 wbs_adr_i[23]
*332 wbs_adr_i[24]
*333 wbs_adr_i[25]
*334 wbs_adr_i[26]
*335 wbs_adr_i[27]
*336 wbs_adr_i[28]
*337 wbs_adr_i[29]
*338 wbs_adr_i[2]
*339 wbs_adr_i[30]
*340 wbs_adr_i[31]
*341 wbs_adr_i[3]
*342 wbs_adr_i[4]
*343 wbs_adr_i[5]
*344 wbs_adr_i[6]
*345 wbs_adr_i[7]
*346 wbs_adr_i[8]
*347 wbs_adr_i[9]
*348 wbs_cyc_i
*349 wbs_dat_i[0]
*350 wbs_dat_i[10]
*351 wbs_dat_i[11]
*352 wbs_dat_i[12]
*353 wbs_dat_i[13]
*354 wbs_dat_i[14]
*355 wbs_dat_i[15]
*356 wbs_dat_i[16]
*357 wbs_dat_i[17]
*358 wbs_dat_i[18]
*359 wbs_dat_i[19]
*360 wbs_dat_i[1]
*361 wbs_dat_i[20]
*362 wbs_dat_i[21]
*363 wbs_dat_i[22]
*364 wbs_dat_i[23]
*365 wbs_dat_i[24]
*366 wbs_dat_i[25]
*367 wbs_dat_i[26]
*368 wbs_dat_i[27]
*369 wbs_dat_i[28]
*370 wbs_dat_i[29]
*371 wbs_dat_i[2]
*372 wbs_dat_i[30]
*373 wbs_dat_i[31]
*374 wbs_dat_i[3]
*375 wbs_dat_i[4]
*376 wbs_dat_i[5]
*377 wbs_dat_i[6]
*378 wbs_dat_i[7]
*379 wbs_dat_i[8]
*380 wbs_dat_i[9]
*381 wbs_dat_o[0]
*382 wbs_dat_o[10]
*383 wbs_dat_o[11]
*384 wbs_dat_o[12]
*385 wbs_dat_o[13]
*386 wbs_dat_o[14]
*387 wbs_dat_o[15]
*388 wbs_dat_o[16]
*389 wbs_dat_o[17]
*390 wbs_dat_o[18]
*391 wbs_dat_o[19]
*392 wbs_dat_o[1]
*393 wbs_dat_o[20]
*394 wbs_dat_o[21]
*395 wbs_dat_o[22]
*396 wbs_dat_o[23]
*397 wbs_dat_o[24]
*398 wbs_dat_o[25]
*399 wbs_dat_o[26]
*400 wbs_dat_o[27]
*401 wbs_dat_o[28]
*402 wbs_dat_o[29]
*403 wbs_dat_o[2]
*404 wbs_dat_o[30]
*405 wbs_dat_o[31]
*406 wbs_dat_o[3]
*407 wbs_dat_o[4]
*408 wbs_dat_o[5]
*409 wbs_dat_o[6]
*410 wbs_dat_o[7]
*411 wbs_dat_o[8]
*412 wbs_dat_o[9]
*413 wbs_sel_i[0]
*414 wbs_sel_i[1]
*415 wbs_sel_i[2]
*416 wbs_sel_i[3]
*417 wbs_stb_i
*418 wbs_we_i
*419 mprj

*PORTS
io_in[0] I
io_in[10] I
io_in[11] I
io_in[12] I
io_in[13] I
io_in[14] I
io_in[15] I
io_in[16] I
io_in[17] I
io_in[18] I
io_in[19] I
io_in[1] I
io_in[20] I
io_in[21] I
io_in[22] I
io_in[23] I
io_in[24] I
io_in[25] I
io_in[26] I
io_in[27] I
io_in[28] I
io_in[29] I
io_in[2] I
io_in[30] I
io_in[31] I
io_in[32] I
io_in[33] I
io_in[34] I
io_in[35] I
io_in[36] I
io_in[37] I
io_in[3] I
io_in[4] I
io_in[5] I
io_in[6] I
io_in[7] I
io_in[8] I
io_in[9] I
io_oeb[0] O
io_oeb[10] O
io_oeb[11] O
io_oeb[12] O
io_oeb[13] O
io_oeb[14] O
io_oeb[15] O
io_oeb[16] O
io_oeb[17] O
io_oeb[18] O
io_oeb[19] O
io_oeb[1] O
io_oeb[20] O
io_oeb[21] O
io_oeb[22] O
io_oeb[23] O
io_oeb[24] O
io_oeb[25] O
io_oeb[26] O
io_oeb[27] O
io_oeb[28] O
io_oeb[29] O
io_oeb[2] O
io_oeb[30] O
io_oeb[31] O
io_oeb[32] O
io_oeb[33] O
io_oeb[34] O
io_oeb[35] O
io_oeb[36] O
io_oeb[37] O
io_oeb[3] O
io_oeb[4] O
io_oeb[5] O
io_oeb[6] O
io_oeb[7] O
io_oeb[8] O
io_oeb[9] O
io_out[0] O
io_out[10] O
io_out[11] O
io_out[12] O
io_out[13] O
io_out[14] O
io_out[15] O
io_out[16] O
io_out[17] O
io_out[18] O
io_out[19] O
io_out[1] O
io_out[20] O
io_out[21] O
io_out[22] O
io_out[23] O
io_out[24] O
io_out[25] O
io_out[26] O
io_out[27] O
io_out[28] O
io_out[29] O
io_out[2] O
io_out[30] O
io_out[31] O
io_out[32] O
io_out[33] O
io_out[34] O
io_out[35] O
io_out[36] O
io_out[37] O
io_out[3] O
io_out[4] O
io_out[5] O
io_out[6] O
io_out[7] O
io_out[8] O
io_out[9] O
la_data_in[0] I
la_data_in[10] I
la_data_in[11] I
la_data_in[12] I
la_data_in[13] I
la_data_in[14] I
la_data_in[15] I
la_data_in[16] I
la_data_in[17] I
la_data_in[18] I
la_data_in[19] I
la_data_in[1] I
la_data_in[20] I
la_data_in[21] I
la_data_in[22] I
la_data_in[23] I
la_data_in[24] I
la_data_in[25] I
la_data_in[26] I
la_data_in[27] I
la_data_in[28] I
la_data_in[29] I
la_data_in[2] I
la_data_in[30] I
la_data_in[31] I
la_data_in[32] I
la_data_in[33] I
la_data_in[34] I
la_data_in[35] I
la_data_in[36] I
la_data_in[37] I
la_data_in[38] I
la_data_in[39] I
la_data_in[3] I
la_data_in[40] I
la_data_in[41] I
la_data_in[42] I
la_data_in[43] I
la_data_in[44] I
la_data_in[45] I
la_data_in[46] I
la_data_in[47] I
la_data_in[48] I
la_data_in[49] I
la_data_in[4] I
la_data_in[50] I
la_data_in[51] I
la_data_in[52] I
la_data_in[53] I
la_data_in[54] I
la_data_in[55] I
la_data_in[56] I
la_data_in[57] I
la_data_in[58] I
la_data_in[59] I
la_data_in[5] I
la_data_in[60] I
la_data_in[61] I
la_data_in[62] I
la_data_in[63] I
la_data_in[6] I
la_data_in[7] I
la_data_in[8] I
la_data_in[9] I
la_data_out[0] O
la_data_out[10] O
la_data_out[11] O
la_data_out[12] O
la_data_out[13] O
la_data_out[14] O
la_data_out[15] O
la_data_out[16] O
la_data_out[17] O
la_data_out[18] O
la_data_out[19] O
la_data_out[1] O
la_data_out[20] O
la_data_out[21] O
la_data_out[22] O
la_data_out[23] O
la_data_out[24] O
la_data_out[25] O
la_data_out[26] O
la_data_out[27] O
la_data_out[28] O
la_data_out[29] O
la_data_out[2] O
la_data_out[30] O
la_data_out[31] O
la_data_out[32] O
la_data_out[33] O
la_data_out[34] O
la_data_out[35] O
la_data_out[36] O
la_data_out[37] O
la_data_out[38] O
la_data_out[39] O
la_data_out[3] O
la_data_out[40] O
la_data_out[41] O
la_data_out[42] O
la_data_out[43] O
la_data_out[44] O
la_data_out[45] O
la_data_out[46] O
la_data_out[47] O
la_data_out[48] O
la_data_out[49] O
la_data_out[4] O
la_data_out[50] O
la_data_out[51] O
la_data_out[52] O
la_data_out[53] O
la_data_out[54] O
la_data_out[55] O
la_data_out[56] O
la_data_out[57] O
la_data_out[58] O
la_data_out[59] O
la_data_out[5] O
la_data_out[60] O
la_data_out[61] O
la_data_out[62] O
la_data_out[63] O
la_data_out[6] O
la_data_out[7] O
la_data_out[8] O
la_data_out[9] O
la_oenb[0] I
la_oenb[10] I
la_oenb[11] I
la_oenb[12] I
la_oenb[13] I
la_oenb[14] I
la_oenb[15] I
la_oenb[16] I
la_oenb[17] I
la_oenb[18] I
la_oenb[19] I
la_oenb[1] I
la_oenb[20] I
la_oenb[21] I
la_oenb[22] I
la_oenb[23] I
la_oenb[24] I
la_oenb[25] I
la_oenb[26] I
la_oenb[27] I
la_oenb[28] I
la_oenb[29] I
la_oenb[2] I
la_oenb[30] I
la_oenb[31] I
la_oenb[32] I
la_oenb[33] I
la_oenb[34] I
la_oenb[35] I
la_oenb[36] I
la_oenb[37] I
la_oenb[38] I
la_oenb[39] I
la_oenb[3] I
la_oenb[40] I
la_oenb[41] I
la_oenb[42] I
la_oenb[43] I
la_oenb[44] I
la_oenb[45] I
la_oenb[46] I
la_oenb[47] I
la_oenb[48] I
la_oenb[49] I
la_oenb[4] I
la_oenb[50] I
la_oenb[51] I
la_oenb[52] I
la_oenb[53] I
la_oenb[54] I
la_oenb[55] I
la_oenb[56] I
la_oenb[57] I
la_oenb[58] I
la_oenb[59] I
la_oenb[5] I
la_oenb[60] I
la_oenb[61] I
la_oenb[62] I
la_oenb[63] I
la_oenb[6] I
la_oenb[7] I
la_oenb[8] I
la_oenb[9] I
user_clock2 I
user_irq[0] O
user_irq[1] O
user_irq[2] O
wb_clk_i I
wb_rst_i I
wbs_ack_o O
wbs_adr_i[0] I
wbs_adr_i[10] I
wbs_adr_i[11] I
wbs_adr_i[12] I
wbs_adr_i[13] I
wbs_adr_i[14] I
wbs_adr_i[15] I
wbs_adr_i[16] I
wbs_adr_i[17] I
wbs_adr_i[18] I
wbs_adr_i[19] I
wbs_adr_i[1] I
wbs_adr_i[20] I
wbs_adr_i[21] I
wbs_adr_i[22] I
wbs_adr_i[23] I
wbs_adr_i[24] I
wbs_adr_i[25] I
wbs_adr_i[26] I
wbs_adr_i[27] I
wbs_adr_i[28] I
wbs_adr_i[29] I
wbs_adr_i[2] I
wbs_adr_i[30] I
wbs_adr_i[31] I
wbs_adr_i[3] I
wbs_adr_i[4] I
wbs_adr_i[5] I
wbs_adr_i[6] I
wbs_adr_i[7] I
wbs_adr_i[8] I
wbs_adr_i[9] I
wbs_cyc_i I
wbs_dat_i[0] I
wbs_dat_i[10] I
wbs_dat_i[11] I
wbs_dat_i[12] I
wbs_dat_i[13] I
wbs_dat_i[14] I
wbs_dat_i[15] I
wbs_dat_i[16] I
wbs_dat_i[17] I
wbs_dat_i[18] I
wbs_dat_i[19] I
wbs_dat_i[1] I
wbs_dat_i[20] I
wbs_dat_i[21] I
wbs_dat_i[22] I
wbs_dat_i[23] I
wbs_dat_i[24] I
wbs_dat_i[25] I
wbs_dat_i[26] I
wbs_dat_i[27] I
wbs_dat_i[28] I
wbs_dat_i[29] I
wbs_dat_i[2] I
wbs_dat_i[30] I
wbs_dat_i[31] I
wbs_dat_i[3] I
wbs_dat_i[4] I
wbs_dat_i[5] I
wbs_dat_i[6] I
wbs_dat_i[7] I
wbs_dat_i[8] I
wbs_dat_i[9] I
wbs_dat_o[0] O
wbs_dat_o[10] O
wbs_dat_o[11] O
wbs_dat_o[12] O
wbs_dat_o[13] O
wbs_dat_o[14] O
wbs_dat_o[15] O
wbs_dat_o[16] O
wbs_dat_o[17] O
wbs_dat_o[18] O
wbs_dat_o[19] O
wbs_dat_o[1] O
wbs_dat_o[20] O
wbs_dat_o[21] O
wbs_dat_o[22] O
wbs_dat_o[23] O
wbs_dat_o[24] O
wbs_dat_o[25] O
wbs_dat_o[26] O
wbs_dat_o[27] O
wbs_dat_o[28] O
wbs_dat_o[29] O
wbs_dat_o[2] O
wbs_dat_o[30] O
wbs_dat_o[31] O
wbs_dat_o[3] O
wbs_dat_o[4] O
wbs_dat_o[5] O
wbs_dat_o[6] O
wbs_dat_o[7] O
wbs_dat_o[8] O
wbs_dat_o[9] O
wbs_sel_i[0] I
wbs_sel_i[1] I
wbs_sel_i[2] I
wbs_sel_i[3] I
wbs_stb_i I
wbs_we_i I

*D_NET *1 0.216396
*CONN
*P io_in[0] I
*I *419:a[0] I *D ffra
*CAP
1 io_in[0] 0.00468274
2 *419:a[0] 0.00263202
3 *1:12 0.0730987
4 *1:11 0.0704667
5 *1:9 0.0304164
6 *1:7 0.0350991
*RES
1 io_in[0] *1:7 37.305 
2 *1:7 *1:9 239.04 
3 *1:9 *1:11 4.5 
4 *1:11 *1:12 543.87 
5 *1:12 *419:a[0] 20.655 
*END

*D_NET *2 0.273352
*CONN
*P io_in[10] I
*I *419:b[2] I *D ffra
*CAP
1 io_in[10] 0.00468274
2 *419:b[2] 0.000341619
3 *2:18 0.00557661
4 *2:17 0.005235
5 *2:15 0.0131286
6 *2:14 0.0131286
7 *2:12 0.0126766
8 *2:11 0.0126766
9 *2:9 0.0328001
10 *2:7 0.0374828
11 *2:15 *8:16 0.00598796
12 *2:15 *13:14 0.00724502
13 *2:15 *38:11 0.116051
14 *2:18 *419:b[0] 0.00207233
15 *2:18 *419:b[1] 0.00426694
*RES
1 io_in[10] *2:7 37.305 
2 *2:7 *2:9 255.24 
3 *2:9 *2:11 4.5 
4 *2:11 *2:12 97.65 
5 *2:12 *2:14 4.5 
6 *2:14 *2:15 290.61 
7 *2:15 *2:17 4.5 
8 *2:17 *2:18 53.19 
9 *2:18 *419:b[2] 7.245 
*END

*D_NET *3 0.227932
*CONN
*P io_in[11] I
*I *419:b[3] I *D ffra
*CAP
1 io_in[11] 0.00286374
2 *419:b[3] 0.000298503
3 *3:14 0.0101021
4 *3:13 0.00980362
5 *3:11 0.0401976
6 *3:10 0.0430613
7 *3:11 *6:11 0.105913
8 *3:14 *419:b[5] 0.0102057
9 *3:14 *419:b[6] 0.00389613
10 *3:14 *419:b[7] 0.00159018
11 *3:14 *5:8 0
*RES
1 io_in[11] *3:10 31.635 
2 *3:10 *3:11 574.11 
3 *3:11 *3:13 4.5 
4 *3:13 *3:14 99.81 
5 *3:14 *419:b[3] 6.885 
*END

*D_NET *4 0.180334
*CONN
*P io_in[12] I
*I *419:b[4] I *D ffra
*CAP
1 io_in[12] 0.000167227
2 *419:b[4] 9.91747e-05
3 *4:16 0.0161582
4 *4:15 0.0160591
5 *4:13 0.0738415
6 *4:11 0.0740087
7 *4:16 *13:11 0
*RES
1 io_in[12] *4:11 2.115 
2 *4:11 *4:13 578.07 
3 *4:13 *4:15 4.5 
4 *4:15 *4:16 123.57 
5 *4:16 *419:b[4] 5.085 
*END

*D_NET *5 0.199572
*CONN
*P io_in[13] I
*I *419:b[5] I *D ffra
*CAP
1 io_in[13] 0.0741573
2 *419:b[5] 0.00213324
3 *5:8 0.0201271
4 *5:7 0.0179938
5 *5:5 0.0741573
6 *419:b[5] *419:b[6] 0.000797352
7 *5:8 *419:b[7] 0
8 *3:14 *419:b[5] 0.0102057
9 *3:14 *5:8 0
*RES
1 io_in[13] *5:5 580.725 
2 *5:5 *5:7 4.5 
3 *5:7 *5:8 138.51 
4 *5:8 *419:b[5] 43.605 
*END

*D_NET *6 0.24556
*CONN
*P io_in[14] I
*I *419:b[6] I *D ffra
*CAP
1 io_in[14] 0.00100991
2 *419:b[6] 0.00250454
3 *6:11 0.0427193
4 *6:10 0.0402147
5 *6:8 0.0228813
6 *6:7 0.0238912
7 *419:b[6] *419:b[7] 0.00173224
8 *419:b[5] *419:b[6] 0.000797352
9 *3:11 *6:11 0.105913
10 *3:14 *419:b[6] 0.00389613
*RES
1 io_in[14] *6:7 12.825 
2 *6:7 *6:8 175.95 
3 *6:8 *6:10 4.5 
4 *6:10 *6:11 574.11 
5 *6:11 *419:b[6] 40.095 
*END

*D_NET *7 0.208298
*CONN
*P io_in[15] I
*I *419:b[7] I *D ffra
*CAP
1 io_in[15] 0.0294609
2 *419:b[7] 0.000773014
3 *7:8 0.0730271
4 *7:7 0.072254
5 *7:5 0.0294609
6 *7:8 *79:14 0
7 *419:b[6] *419:b[7] 0.00173224
8 *3:14 *419:b[7] 0.00159018
9 *5:8 *419:b[7] 0
*RES
1 io_in[15] *7:5 227.025 
2 *7:5 *7:7 4.5 
3 *7:7 *7:8 564.57 
4 *7:8 *419:b[7] 18.675 
*END

*D_NET *8 0.23166
*CONN
*P io_in[16] I
*I *419:ci[0] I *D ffra
*CAP
1 io_in[16] 0.000247817
2 *419:ci[0] 0.000858506
3 *8:16 0.0469694
4 *8:15 0.0461109
5 *8:13 0.0530073
6 *8:11 0.0532551
7 *8:16 *13:14 0.0252228
8 *8:16 *38:11 0
9 *2:15 *8:16 0.00598796
*RES
1 io_in[16] *8:11 2.655 
2 *8:11 *8:13 407.97 
3 *8:13 *8:15 4.5 
4 *8:15 *8:16 412.65 
5 *8:16 *419:ci[0] 10.755 
*END

*D_NET *9 0.232281
*CONN
*P io_in[17] I
*I *419:ci[1] I *D ffra
*CAP
1 io_in[17] 0.00105188
2 *419:ci[1] 0.00012113
3 *9:14 0.021276
4 *9:13 0.0211549
5 *9:11 0.05295
6 *9:10 0.05295
7 *9:8 0.00467693
8 *9:7 0.00572881
9 *9:8 *83:14 0.024586
10 *9:14 *419:ci[15] 0.000298343
11 *9:14 *17:11 0.0445927
12 *9:14 *18:11 0.00289475
*RES
1 io_in[17] *9:7 12.645 
2 *9:7 *9:8 66.87 
3 *9:8 *9:10 4.5 
4 *9:10 *9:11 406.17 
5 *9:11 *9:13 4.5 
6 *9:13 *9:14 225.63 
7 *9:14 *419:ci[1] 5.355 
*END

*D_NET *10 0.158041
*CONN
*P io_in[18] I
*I *419:ci[2] I *D ffra
*CAP
1 io_in[18] 0.00107486
2 *419:ci[2] 0.000102358
3 *10:11 0.0497753
4 *10:10 0.0496729
5 *10:8 0.0187571
6 *10:7 0.019832
7 *10:8 *11:8 0.018826
*RES
1 io_in[18] *10:7 12.825 
2 *10:7 *10:8 169.83 
3 *10:8 *10:10 4.5 
4 *10:10 *10:11 404.73 
5 *10:11 *419:ci[2] 9.765 
*END

*D_NET *11 0.13133
*CONN
*P io_in[19] I
*I *419:ci[3] I *D ffra
*CAP
1 io_in[19] 0.00105188
2 *419:ci[3] 0.000125339
3 *11:11 0.0520282
4 *11:10 0.0519029
5 *11:8 0.00317178
6 *11:7 0.00422366
7 *10:8 *11:8 0.018826
*RES
1 io_in[19] *11:7 12.645 
2 *11:7 *11:8 47.25 
3 *11:8 *11:10 4.5 
4 *11:10 *11:11 404.91 
5 *11:11 *419:ci[3] 9.945 
*END

*D_NET *12 0.220273
*CONN
*P io_in[1] I
*I *419:a[1] I *D ffra
*CAP
1 io_in[1] 0.000350475
2 *419:a[1] 0.001354
3 *12:19 0.00854676
4 *12:18 0.00719277
5 *12:16 0.0655119
6 *12:15 0.0655119
7 *12:13 0.0357273
8 *12:11 0.0360778
*RES
1 io_in[1] *12:11 3.195 
2 *12:11 *12:13 227.07 
3 *12:13 *12:15 4.5 
4 *12:15 *12:16 504.99 
5 *12:16 *12:18 4.5 
6 *12:18 *12:19 55.44 
7 *12:19 *419:a[1] 10.215 
*END

*D_NET *13 0.158834
*CONN
*P io_in[20] I
*I *419:ci[4] I *D ffra
*CAP
1 io_in[20] 0.00458689
2 *419:ci[4] 0.000748085
3 *13:14 0.00676061
4 *13:13 0.00601253
5 *13:11 0.0518355
6 *13:10 0.0564224
7 *2:15 *13:14 0.00724502
8 *4:16 *13:11 0
9 *8:16 *13:14 0.0252228
*RES
1 io_in[20] *13:10 44.595 
2 *13:10 *13:11 399.51 
3 *13:11 *13:13 4.5 
4 *13:13 *13:14 101.61 
5 *13:14 *419:ci[4] 9.765 
*END

*D_NET *14 0.194523
*CONN
*P io_in[21] I
*I *419:ci[5] I *D ffra
*CAP
1 io_in[21] 0.00107486
2 *419:ci[5] 0.000557199
3 *14:14 0.00895267
4 *14:13 0.00839548
5 *14:11 0.0530948
6 *14:10 0.0530948
7 *14:8 0.00878143
8 *14:7 0.0098563
9 *14:14 *16:16 0
10 *14:14 *21:19 0.0507157
*RES
1 io_in[21] *14:7 12.825 
2 *14:7 *14:8 69.57 
3 *14:8 *14:10 4.5 
4 *14:10 *14:11 409.41 
5 *14:11 *14:13 4.5 
6 *14:13 *14:14 126.99 
7 *14:14 *419:ci[5] 8.145 
*END

*D_NET *15 0.278063
*CONN
*P io_in[22] I
*I *419:ci[6] I *D ffra
*CAP
1 io_in[22] 0.00480629
2 *419:ci[6] 0.000461583
3 *15:12 0.0214289
4 *15:11 0.0209673
5 *15:9 0.0491643
6 *15:7 0.0539706
7 *15:12 *16:16 0.127264
8 *15:12 *18:11 0
*RES
1 io_in[22] *15:7 37.305 
2 *15:7 *15:9 379.26 
3 *15:9 *15:11 4.5 
4 *15:11 *15:12 318.51 
5 *15:12 *419:ci[6] 7.785 
*END

*D_NET *16 0.310369
*CONN
*P io_in[23] I
*I *419:ci[7] I *D ffra
*CAP
1 io_in[23] 0.000345489
2 *419:ci[7] 0.000318426
3 *16:16 0.0372896
4 *16:15 0.0369712
5 *16:13 0.0539172
6 *16:11 0.0542627
7 *16:16 *18:11 0
8 *16:16 *21:19 0
9 *14:14 *16:16 0
10 *15:12 *16:16 0.127264
*RES
1 io_in[23] *16:11 3.195 
2 *16:11 *16:13 416.07 
3 *16:13 *16:15 4.5 
4 *16:15 *16:16 443.79 
5 *16:16 *419:ci[7] 6.525 
*END

*D_NET *17 0.421549
*CONN
*P io_in[24] I
*I *419:ci[8] I *D ffra
*CAP
1 io_in[24] 0.00119322
2 *419:ci[8] 7.96535e-05
3 *17:11 0.0288584
4 *17:10 0.0287787
5 *17:8 0.0519597
6 *17:7 0.053153
7 *17:11 *419:clk 0.000270134
8 *17:11 *419:rst 0.000251177
9 *17:11 *18:11 0.212412
10 *9:14 *17:11 0.0445927
*RES
1 io_in[24] *17:7 13.365 
2 *17:7 *17:8 400.77 
3 *17:8 *17:10 4.5 
4 *17:10 *17:11 536.85 
5 *17:11 *419:ci[8] 4.905 
*END

*D_NET *18 0.378007
*CONN
*P io_in[25] I
*I *419:ci[9] I *D ffra
*CAP
1 io_in[25] 0.00197572
2 *419:ci[9] 0.000102621
3 *18:11 0.0362042
4 *18:10 0.0361016
5 *18:8 0.0431702
6 *18:7 0.0451459
7 *9:14 *18:11 0.00289475
8 *15:12 *18:11 0
9 *16:16 *18:11 0
10 *17:11 *18:11 0.212412
*RES
1 io_in[25] *18:7 18.765 
2 *18:7 *18:8 332.91 
3 *18:8 *18:10 4.5 
4 *18:10 *18:11 547.47 
5 *18:11 *419:ci[9] 5.085 
*END

*D_NET *19 0.483698
*CONN
*P io_in[26] I
*I *419:ci[10] I *D ffra
*CAP
1 io_in[26] 0.00231625
2 *419:ci[10] 0.000355446
3 *19:11 0.0118122
4 *19:10 0.0114568
5 *19:8 0.0338026
6 *19:7 0.0361189
7 *19:11 *20:19 0.223062
8 *19:11 *22:19 0.164773
*RES
1 io_in[26] *19:7 21.465 
2 *19:7 *19:8 260.73 
3 *19:8 *19:10 4.5 
4 *19:10 *19:11 560.79 
5 *19:11 *419:ci[10] 7.065 
*END

*D_NET *20 0.357827
*CONN
*P io_in[27] I
*I *419:ci[11] I *D ffra
*CAP
1 io_in[27] 0.00303293
2 *419:ci[11] 0.000316488
3 *20:19 0.0381955
4 *20:18 0.0378791
5 *20:16 0.0247143
6 *20:15 0.0277472
7 *20:19 *22:19 0.00287985
8 *19:11 *20:19 0.223062
*RES
1 io_in[27] *20:15 27.225 
2 *20:15 *20:16 190.53 
3 *20:16 *20:18 4.5 
4 *20:18 *20:19 574.11 
5 *20:19 *419:ci[11] 6.885 
*END

*D_NET *21 0.227296
*CONN
*P io_in[28] I
*I *419:ci[12] I *D ffra
*CAP
1 io_in[28] 0.000281565
2 *419:ci[12] 0.000516288
3 *21:19 0.0192918
4 *21:18 0.0187755
5 *21:16 0.0169593
6 *21:15 0.0169593
7 *21:13 0.0470544
8 *21:11 0.0473359
9 *21:19 *24:19 0.00940671
10 *14:14 *21:19 0.0507157
11 *16:16 *21:19 0
*RES
1 io_in[28] *21:11 2.475 
2 *21:11 *21:13 368.01 
3 *21:13 *21:15 4.5 
4 *21:15 *21:16 130.23 
5 *21:16 *21:18 4.5 
6 *21:18 *21:19 241.83 
7 *21:19 *419:ci[12] 8.325 
*END

*D_NET *22 0.290344
*CONN
*P io_in[29] I
*I *419:ci[13] I *D ffra
*CAP
1 io_in[29] 0.000177869
2 *419:ci[13] 0.000362451
3 *22:19 0.032763
4 *22:18 0.0324005
5 *22:16 0.00716602
6 *22:15 0.00716602
7 *22:13 0.0212385
8 *22:11 0.0214163
9 *19:11 *22:19 0.164773
10 *20:19 *22:19 0.00287985
*RES
1 io_in[29] *22:11 1.935 
2 *22:11 *22:13 165.51 
3 *22:13 *22:15 4.5 
4 *22:15 *22:16 55.17 
5 *22:16 *22:18 4.5 
6 *22:18 *22:19 460.35 
7 *22:19 *419:ci[13] 7.245 
*END

*D_NET *23 0.195571
*CONN
*P io_in[2] I
*I *419:a[2] I *D ffra
*CAP
1 io_in[2] 0.000167227
2 *419:a[2] 0.00131088
3 *23:19 0.00882517
4 *23:18 0.00751429
5 *23:16 0.0602631
6 *23:15 0.0602631
7 *23:13 0.0285302
8 *23:11 0.0286974
*RES
1 io_in[2] *23:11 2.115 
2 *23:11 *23:13 224.37 
3 *23:13 *23:15 4.5 
4 *23:15 *23:16 464.49 
5 *23:16 *23:18 4.5 
6 *23:18 *23:19 58.14 
7 *23:19 *419:a[2] 9.855 
*END

*D_NET *24 0.167871
*CONN
*P io_in[30] I
*I *419:ci[14] I *D ffra
*CAP
1 io_in[30] 0.000127055
2 *419:ci[14] 0.000784283
3 *24:19 0.0172403
4 *24:18 0.0170369
5 *24:13 0.0618649
6 *24:11 0.0614111
7 *24:13 *37:11 0
8 *21:19 *24:19 0.00940671
*RES
1 io_in[30] *24:11 1.395 
2 *24:11 *24:13 480.15 
3 *24:13 *24:18 13.05 
4 *24:18 *24:19 161.73 
5 *24:19 *419:ci[14] 9.225 
*END

*D_NET *25 0.18821
*CONN
*P io_in[31] I
*I *419:ci[15] I *D ffra
*CAP
1 io_in[31] 0.00181095
2 *419:ci[15] 0.000281523
3 *25:18 0.00654483
4 *25:17 0.0062633
5 *25:15 0.0615643
6 *25:14 0.065257
7 *25:9 0.0240357
8 *25:7 0.022154
9 *9:14 *419:ci[15] 0.000298343
*RES
1 io_in[31] *25:7 13.185 
2 *25:7 *25:9 160.74 
3 *25:9 *25:14 37.35 
4 *25:14 *25:15 482.13 
5 *25:15 *25:17 4.5 
6 *25:17 *25:18 47.97 
7 *25:18 *419:ci[15] 2.205 
*END

*D_NET *32 0.184683
*CONN
*P io_in[3] I
*I *419:a[3] I *D ffra
*CAP
1 io_in[3] 0.0277745
2 *419:a[3] 0.000134736
3 *32:11 0.00953649
4 *32:10 0.00940176
5 *32:8 0.0550305
6 *32:7 0.0550305
7 *32:5 0.0277745
*RES
1 io_in[3] *32:5 218.925 
2 *32:5 *32:7 4.5 
3 *32:7 *32:8 423.99 
4 *32:8 *32:10 4.5 
5 *32:10 *32:11 71.73 
6 *32:11 *419:a[3] 1.125 
*END

*D_NET *33 0.175397
*CONN
*P io_in[4] I
*I *419:a[4] I *D ffra
*CAP
1 io_in[4] 0.000276978
2 *419:a[4] 0.00011184
3 *33:19 0.00983696
4 *33:18 0.00972512
5 *33:16 0.050128
6 *33:15 0.050128
7 *33:13 0.0274565
8 *33:11 0.0277335
*RES
1 io_in[4] *33:11 2.655 
2 *33:11 *33:13 216.27 
3 *33:13 *33:15 4.5 
4 *33:15 *33:16 386.19 
5 *33:16 *33:18 4.5 
6 *33:18 *33:19 74.43 
7 *33:19 *419:a[4] 0.765 
*END

*D_NET *34 0.164375
*CONN
*P io_in[5] I
*I *419:a[5] I *D ffra
*CAP
1 io_in[5] 0.00468274
2 *419:a[5] 4.85048e-05
3 *34:15 0.010097
4 *34:14 0.0100485
5 *34:12 0.0448862
6 *34:11 0.0448862
7 *34:9 0.0225214
8 *34:7 0.0272041
*RES
1 io_in[5] *34:7 37.305 
2 *34:7 *34:9 176.94 
3 *34:9 *34:11 4.5 
4 *34:11 *34:12 345.69 
5 *34:12 *34:14 4.5 
6 *34:14 *34:15 77.13 
7 *34:15 *419:a[5] 0.405 
*END

*D_NET *35 0.172373
*CONN
*P io_in[6] I
*I *419:a[6] I *D ffra
*CAP
1 io_in[6] 0.000337838
2 *419:a[6] 0.0127162
3 *35:18 0.0127162
4 *35:16 0.0399534
5 *35:15 0.0399534
6 *35:13 0.033179
7 *35:11 0.0335168
*RES
1 io_in[6] *35:11 3.195 
2 *35:11 *35:13 210.87 
3 *35:13 *35:15 4.5 
4 *35:15 *35:16 307.89 
5 *35:16 *35:18 4.5 
6 *35:18 *419:a[6] 79.785 
*END

*D_NET *36 0.143999
*CONN
*P io_in[7] I
*I *419:a[7] I *D ffra
*CAP
1 io_in[7] 0.000167227
2 *419:a[7] 0.00141867
3 *36:19 0.0199454
4 *36:18 0.0185267
5 *36:16 0.0343653
6 *36:15 0.0343653
7 *36:13 0.0175216
8 *36:11 0.0176888
*RES
1 io_in[7] *36:11 2.115 
2 *36:11 *36:13 137.97 
3 *36:13 *36:15 4.5 
4 *36:15 *36:16 264.69 
5 *36:16 *36:18 4.5 
6 *36:18 *36:19 144.54 
7 *36:19 *419:a[7] 10.755 
*END

*D_NET *37 0.193125
*CONN
*P io_in[8] I
*I *419:b[0] I *D ffra
*CAP
1 io_in[8] 0.00291855
2 *419:b[0] 0.0024735
3 *37:11 0.0916066
4 *37:10 0.0920516
5 *419:b[0] *419:b[1] 0.00200204
6 *2:18 *419:b[0] 0.00207233
7 *24:13 *37:11 0
*RES
1 io_in[8] *37:10 31.815 
2 *37:10 *37:11 573.93 
3 *37:11 *419:b[0] 31.455 
*END

*D_NET *38 0.249083
*CONN
*P io_in[9] I
*I *419:b[1] I *D ffra
*CAP
1 io_in[9] 0.00548278
2 *419:b[1] 0.00241773
3 *38:11 0.057899
4 *38:10 0.0554813
5 *38:8 0.00548278
6 *419:b[0] *419:b[1] 0.00200204
7 *2:15 *38:11 0.116051
8 *2:18 *419:b[1] 0.00426694
9 *8:16 *38:11 0
*RES
1 io_in[9] *38:8 47.115 
2 *38:8 *38:10 4.5 
3 *38:10 *38:11 573.75 
4 *38:11 *419:b[1] 40.455 
*END

*D_NET *77 0.407985
*CONN
*P io_out[0] O
*I *419:o[0] O *D ffra
*CAP
1 io_out[0] 0.00463962
2 *419:o[0] 0.000686893
3 *77:14 0.0375391
4 *77:13 0.0328995
5 *77:11 0.0918531
6 *77:10 0.0918531
7 *77:8 0.017779
8 *77:7 0.0184659
9 *77:8 *111:8 0.0669129
10 *77:8 *114:8 0.0453561
*RES
1 *419:o[0] *77:7 8.685 
2 *77:7 *77:8 275.67 
3 *77:8 *77:10 4.5 
4 *77:10 *77:11 707.67 
5 *77:11 *77:13 4.5 
6 *77:13 *77:14 257.94 
7 *77:14 io_out[0] 36.945 
*END

*D_NET *78 0.144233
*CONN
*P io_out[10] O
*I *419:o[10] O *D ffra
*CAP
1 io_out[10] 0.00463962
2 *419:o[10] 0
3 *78:11 0.0374216
4 *78:10 0.032782
5 *78:8 0.00859361
6 *78:7 0.00859361
7 *78:5 0.00642747
8 *78:4 0.00642747
9 *78:5 *112:5 0.0393475
*RES
1 *419:o[10] *78:4 4.5 
2 *78:4 *78:5 98.37 
3 *78:5 *78:7 4.5 
4 *78:7 *78:8 65.43 
5 *78:8 *78:10 4.5 
6 *78:10 *78:11 255.24 
7 *78:11 io_out[10] 36.945 
*END

*D_NET *79 0.125039
*CONN
*P io_out[11] O
*I *419:o[11] O *D ffra
*CAP
1 io_out[11] 0.000253458
2 *419:o[11] 0.000728709
3 *79:14 0.0308165
4 *79:13 0.0317448
5 *79:8 0.0105718
6 *79:7 0.0101187
7 *79:8 *111:8 0.0353111
8 *79:8 *114:8 0.00549361
9 *7:8 *79:14 0
*RES
1 *419:o[11] *79:7 9.045 
2 *79:7 *79:8 132.39 
3 *79:8 *79:13 17.73 
4 *79:13 *79:14 239.85 
5 *79:14 io_out[11] 2.835 
*END

*D_NET *80 0.130979
*CONN
*P io_out[12] O
*I *419:o[12] O *D ffra
*CAP
1 io_out[12] 0.000146231
2 *419:o[12] 0.00118132
3 *80:14 0.0329266
4 *80:13 0.0327803
5 *80:11 0.00687413
6 *80:10 0.00687413
7 *80:8 0.0160193
8 *80:7 0.0172006
9 *80:8 *81:10 0.0166972
10 *80:8 *83:10 0.000278962
*RES
1 *419:o[12] *80:7 12.465 
2 *80:7 *80:8 146.07 
3 *80:8 *80:10 4.5 
4 *80:10 *80:11 52.83 
5 *80:11 *80:13 4.5 
6 *80:13 *80:14 208.17 
7 *80:14 io_out[12] 1.755 
*END

*D_NET *81 0.130225
*CONN
*P io_out[13] O
*I *419:o[13] O *D ffra
*CAP
1 io_out[13] 0.000345078
2 *419:o[13] 0.00122028
3 *81:14 0.0379258
4 *81:13 0.0375808
5 *81:11 0.014919
6 *81:10 0.017618
7 *81:7 0.00391929
8 *80:8 *81:10 0.0166972
*RES
1 *419:o[13] *81:7 12.645 
2 *81:7 *81:10 46.17 
3 *81:10 *81:11 114.75 
4 *81:11 *81:13 4.5 
5 *81:13 *81:14 294.57 
6 *81:14 io_out[13] 3.375 
*END

*D_NET *82 0.13074
*CONN
*P io_out[14] O
*I *419:o[14] O *D ffra
*CAP
1 io_out[14] 0.000188785
2 *419:o[14] 0.00155798
3 *82:14 0.0333039
4 *82:13 0.0331151
5 *82:11 0.0229689
6 *82:10 0.0229689
7 *82:8 0.00753944
8 *82:7 0.00909742
*RES
1 *419:o[14] *82:7 15.165 
2 *82:7 *82:8 58.77 
3 *82:8 *82:10 4.5 
4 *82:10 *82:11 177.03 
5 *82:11 *82:13 4.5 
6 *82:13 *82:14 259.47 
7 *82:14 io_out[14] 2.295 
*END

*D_NET *83 0.137937
*CONN
*P io_out[15] O
*I *419:o[15] O *D ffra
*CAP
1 io_out[15] 0.00107486
2 *419:o[15] 0.00196029
3 *83:14 0.02778
4 *83:13 0.0267051
5 *83:11 0.0267959
6 *83:10 0.0287562
7 *9:8 *83:14 0.024586
8 *80:8 *83:10 0.000278962
*RES
1 *419:o[15] *83:10 24.255 
2 *83:10 *83:11 206.37 
3 *83:11 *83:13 4.5 
4 *83:13 *83:14 238.77 
5 *83:14 io_out[15] 12.825 
*END

*D_NET *88 0.379416
*CONN
*P io_out[1] O
*I *419:o[1] O *D ffra
*CAP
1 io_out[1] 0.000253458
2 *419:o[1] 0.000769379
3 *88:15 0.034652
4 *88:14 0.0343985
5 *88:12 0.0830924
6 *88:11 0.0830924
7 *88:9 0.0191064
8 *88:7 0.0198757
9 *88:9 *99:7 0.001148
10 *88:9 *99:9 0.103027
*RES
1 *419:o[1] *88:7 10.17 
2 *88:7 *88:9 276.84 
3 *88:9 *88:11 4.5 
4 *88:11 *88:12 639.99 
5 *88:12 *88:14 4.5 
6 *88:14 *88:15 270.27 