*SPEF "ieee 1481-1999"
*DESIGN "ffra"
*DATE "11:11:11 Fri 11 11, 1111"
*VENDOR "OpenRCX"
*PROGRAM "Parallel Extraction"
*VERSION "1.0"
*DESIGN_FLOW "NAME_SCOPE LOCAL" "PIN_CAP NONE"
*DIVIDER /
*DELIMITER :
*BUS_DELIMITER []
*T_UNIT 1 NS
*C_UNIT 1 PF
*R_UNIT 1 OHM
*L_UNIT 1 HENRY

*NAME_MAP
*1 a[0]
*2 a[1]
*3 a[2]
*4 a[3]
*5 a[4]
*6 a[5]
*7 a[6]
*8 a[7]
*9 b[0]
*10 b[1]
*11 b[2]
*12 b[3]
*13 b[4]
*14 b[5]
*15 b[6]
*16 b[7]
*17 ci[0]
*18 ci[10]
*19 ci[11]
*20 ci[12]
*21 ci[13]
*22 ci[14]
*23 ci[15]
*24 ci[1]
*25 ci[2]
*26 ci[3]
*27 ci[4]
*28 ci[5]
*29 ci[6]
*30 ci[7]
*31 ci[8]
*32 ci[9]
*33 clk
*34 net1
*35 net11
*36 net12
*37 net13
*38 net14
*39 net15
*40 net16
*41 net2
*42 net3
*43 net4
*44 net5
*45 net6
*46 net7
*47 net8
*48 net9
*49 net10
*50 rst
*51 FILLER_0_0
*52 FILLER_0_1008
*53 FILLER_0_1024
*54 FILLER_0_1040
*55 FILLER_0_1056
*56 FILLER_0_1072
*57 FILLER_0_1088
*58 FILLER_0_1104
*59 FILLER_0_112
*60 FILLER_0_1120
*61 FILLER_0_1136
*62 FILLER_0_1152
*63 FILLER_0_1168
*64 FILLER_0_1184
*65 FILLER_0_1200
*66 FILLER_0_1216
*67 FILLER_0_1232
*68 FILLER_0_1248
*69 FILLER_0_1264
*70 FILLER_0_128
*71 FILLER_0_1280
*72 FILLER_0_1296
*73 FILLER_0_1312
*74 FILLER_0_1328
*75 FILLER_0_1344
*76 FILLER_0_1360
*77 FILLER_0_1376
*78 FILLER_0_1392
*79 FILLER_0_1408
*80 FILLER_0_1424
*81 FILLER_0_144
*82 FILLER_0_1440
*83 FILLER_0_1456
*84 FILLER_0_1472
*85 FILLER_0_1488
*86 FILLER_0_1504
*87 FILLER_0_1520
*88 FILLER_0_1536
*89 FILLER_0_1552
*90 FILLER_0_1568
*91 FILLER_0_1584
*92 FILLER_0_16
*93 FILLER_0_160
*94 FILLER_0_1600
*95 FILLER_0_1616
*96 FILLER_0_1632
*97 FILLER_0_1648
*98 FILLER_0_1664
*99 FILLER_0_1680
*100 FILLER_0_1696
*101 FILLER_0_1712
*102 FILLER_0_1728
*103 FILLER_0_1744
*104 FILLER_0_176
*105 FILLER_0_1760
*106 FILLER_0_1776
*107 FILLER_0_1792
*108 FILLER_0_1808
*109 FILLER_0_1824
*110 FILLER_0_1840
*111 FILLER_0_1856
*112 FILLER_0_1872
*113 FILLER_0_1888
*114 FILLER_0_1904
*115 FILLER_0_192
*116 FILLER_0_1920
*117 FILLER_0_1936
*118 FILLER_0_1952
*119 FILLER_0_1968
*120 FILLER_0_1984
*121 FILLER_0_2000
*122 FILLER_0_2016
*123 FILLER_0_2032
*124 FILLER_0_2048
*125 FILLER_0_2064
*126 FILLER_0_208
*127 FILLER_0_2080
*128 FILLER_0_2096
*129 FILLER_0_2112
*130 FILLER_0_2128
*131 FILLER_0_2144
*132 FILLER_0_2160
*133 FILLER_0_2176
*134 FILLER_0_2192
*135 FILLER_0_2208
*136 FILLER_0_2224
*137 FILLER_0_224
*138 FILLER_0_2240
*139 FILLER_0_2256
*140 FILLER_0_2272
*141 FILLER_0_2288
*142 FILLER_0_2304
*143 FILLER_0_2320
*144 FILLER_0_2336
*145 FILLER_0_2352
*146 FILLER_0_2368
*147 FILLER_0_2384
*148 FILLER_0_240
*149 FILLER_0_2400
*150 FILLER_0_2416
*151 FILLER_0_2432
*152 FILLER_0_2448
*153 FILLER_0_2464
*154 FILLER_0_2480
*155 FILLER_0_2496
*156 FILLER_0_2512
*157 FILLER_0_2528
*158 FILLER_0_2544
*159 FILLER_0_256
*160 FILLER_0_2560
*161 FILLER_0_2576
*162 FILLER_0_2592
*163 FILLER_0_2608
*164 FILLER_0_2624
*165 FILLER_0_2640
*166 FILLER_0_2656
*167 FILLER_0_2672
*168 FILLER_0_2688
*169 FILLER_0_2704
*170 FILLER_0_272
*171 FILLER_0_2720
*172 FILLER_0_2736
*173 FILLER_0_2752
*174 FILLER_0_2768
*175 FILLER_0_2784
*176 FILLER_0_2800
*177 FILLER_0_2816
*178 FILLER_0_2832
*179 FILLER_0_2848
*180 FILLER_0_2864
*181 FILLER_0_288
*182 FILLER_0_2880
*183 FILLER_0_2896
*184 FILLER_0_2912
*185 FILLER_0_2928
*186 FILLER_0_2944
*187 FILLER_0_2960
*188 FILLER_0_2976
*189 FILLER_0_2992
*190 FILLER_0_3008
*191 FILLER_0_3024
*192 FILLER_0_304
*193 FILLER_0_3040
*194 FILLER_0_3056
*195 FILLER_0_3072
*196 FILLER_0_3088
*197 FILLER_0_3104
*198 FILLER_0_3120
*199 FILLER_0_3136
*200 FILLER_0_3152
*201 FILLER_0_3168
*202 FILLER_0_3184
*203 FILLER_0_32
*204 FILLER_0_320
*205 FILLER_0_3200
*206 FILLER_0_3216
*207 FILLER_0_3232
*208 FILLER_0_3248
*209 FILLER_0_3264
*210 FILLER_0_3280
*211 FILLER_0_3296
*212 FILLER_0_3312
*213 FILLER_0_3328
*214 FILLER_0_3344
*215 FILLER_0_336
*216 FILLER_0_3360
*217 FILLER_0_3376
*218 FILLER_0_3392
*219 FILLER_0_3408
*220 FILLER_0_3424
*221 FILLER_0_3440
*222 FILLER_0_3456
*223 FILLER_0_3472
*224 FILLER_0_3488
*225 FILLER_0_3504
*226 FILLER_0_352
*227 FILLER_0_3520
*228 FILLER_0_3536
*229 FILLER_0_3552
*230 FILLER_0_3568
*231 FILLER_0_3584
*232 FILLER_0_3600
*233 FILLER_0_3616
*234 FILLER_0_3632
*235 FILLER_0_3648
*236 FILLER_0_3664
*237 FILLER_0_368
*238 FILLER_0_3680
*239 FILLER_0_3696
*240 FILLER_0_3712
*241 FILLER_0_3728
*242 FILLER_0_3744
*243 FILLER_0_3760
*244 FILLER_0_3776
*245 FILLER_0_3792
*246 FILLER_0_3808
*247 FILLER_0_3824
*248 FILLER_0_384
*249 FILLER_0_3840
*250 FILLER_0_3856
*251 FILLER_0_3872
*252 FILLER_0_3888
*253 FILLER_0_3904
*254 FILLER_0_3920
*255 FILLER_0_3936
*256 FILLER_0_3952
*257 FILLER_0_3968
*258 FILLER_0_3984
*259 FILLER_0_400
*260 FILLER_0_4000
*261 FILLER_0_4016
*262 FILLER_0_4032
*263 FILLER_0_4048
*264 FILLER_0_4064
*265 FILLER_0_4080
*266 FILLER_0_4096
*267 FILLER_0_4112
*268 FILLER_0_4128
*269 FILLER_0_4144
*270 FILLER_0_416
*271 FILLER_0_4160
*272 FILLER_0_4176
*273 FILLER_0_4192
*274 FILLER_0_4208
*275 FILLER_0_4224
*276 FILLER_0_4240
*277 FILLER_0_4256
*278 FILLER_0_4272
*279 FILLER_0_4288
*280 FILLER_0_4304
*281 FILLER_0_432
*282 FILLER_0_4320
*283 FILLER_0_4336
*284 FILLER_0_4352
*285 FILLER_0_4368
*286 FILLER_0_4384
*287 FILLER_0_4400
*288 FILLER_0_4416
*289 FILLER_0_4432
*290 FILLER_0_4448
*291 FILLER_0_4464
*292 FILLER_0_448
*293 FILLER_0_4480
*294 FILLER_0_4496
*295 FILLER_0_4512
*296 FILLER_0_4528
*297 FILLER_0_4544
*298 FILLER_0_4560
*299 FILLER_0_4576
*300 FILLER_0_4592
*301 FILLER_0_4608
*302 FILLER_0_4624
*303 FILLER_0_464
*304 FILLER_0_4640
*305 FILLER_0_4656
*306 FILLER_0_4672
*307 FILLER_0_4688
*308 FILLER_0_4704
*309 FILLER_0_4720
*310 FILLER_0_4736
*311 FILLER_0_4752
*312 FILLER_0_4768
*313 FILLER_0_4784
*314 FILLER_0_48
*315 FILLER_0_480
*316 FILLER_0_4800
*317 FILLER_0_4816
*318 FILLER_0_4832
*319 FILLER_0_4848
*320 FILLER_0_4864
*321 FILLER_0_4880
*322 FILLER_0_4896
*323 FILLER_0_4912
*324 FILLER_0_4928
*325 FILLER_0_4944
*326 FILLER_0_496
*327 FILLER_0_4960
*328 FILLER_0_4976
*329 FILLER_0_4992
*330 FILLER_0_5008
*331 FILLER_0_5024
*332 FILLER_0_5040
*333 FILLER_0_5056
*334 FILLER_0_5072
*335 FILLER_0_5088
*336 FILLER_0_5104
*337 FILLER_0_512
*338 FILLER_0_5120
*339 FILLER_0_5136
*340 FILLER_0_5152
*341 FILLER_0_5168
*342 FILLER_0_5184
*343 FILLER_0_5200
*344 FILLER_0_5216
*345 FILLER_0_5232
*346 FILLER_0_5248
*347 FILLER_0_5264
*348 FILLER_0_528
*349 FILLER_0_5280
*350 FILLER_0_5296
*351 FILLER_0_5312
*352 FILLER_0_5328
*353 FILLER_0_5344
*354 FILLER_0_5360
*355 FILLER_0_5376
*356 FILLER_0_5392
*357 FILLER_0_5408
*358 FILLER_0_5424
*359 FILLER_0_544
*360 FILLER_0_5440
*361 FILLER_0_5456
*362 FILLER_0_5472
*363 FILLER_0_5488
*364 FILLER_0_5504
*365 FILLER_0_5520
*366 FILLER_0_5536
*367 FILLER_0_5552
*368 FILLER_0_5568
*369 FILLER_0_5584
*370 FILLER_0_560
*371 FILLER_0_5600
*372 FILLER_0_5616
*373 FILLER_0_5632
*374 FILLER_0_5648
*375 FILLER_0_5664
*376 FILLER_0_5680
*377 FILLER_0_5696
*378 FILLER_0_5712
*379 FILLER_0_5728
*380 FILLER_0_5744
*381 FILLER_0_576
*382 FILLER_0_5760
*383 FILLER_0_5776
*384 FILLER_0_5792
*385 FILLER_0_5808
*386 FILLER_0_5824
*387 FILLER_0_5840
*388 FILLER_0_5856
*389 FILLER_0_5872
*390 FILLER_0_5888
*391 FILLER_0_5904
*392 FILLER_0_592
*393 FILLER_0_5920
*394 FILLER_0_5936
*395 FILLER_0_5952
*396 FILLER_0_5968
*397 FILLER_0_5984
*398 FILLER_0_6000
*399 FILLER_0_6016
*400 FILLER_0_6032
*401 FILLER_0_6048
*402 FILLER_0_6064
*403 FILLER_0_608
*404 FILLER_0_6080
*405 FILLER_0_6096
*406 FILLER_0_6112
*407 FILLER_0_6128
*408 FILLER_0_6144
*409 FILLER_0_6160
*410 FILLER_0_6176
*411 FILLER_0_6192
*412 FILLER_0_6208
*413 FILLER_0_6224
*414 FILLER_0_624
*415 FILLER_0_6240
*416 FILLER_0_6256
*417 FILLER_0_6272
*418 FILLER_0_6288
*419 FILLER_0_6304
*420 FILLER_0_6320
*421 FILLER_0_6336
*422 FILLER_0_6352
*423 FILLER_0_6368
*424 FILLER_0_6384
*425 FILLER_0_64
*426 FILLER_0_640
*427 FILLER_0_6400
*428 FILLER_0_6416
*429 FILLER_0_6432
*430 FILLER_0_6448
*431 FILLER_0_6464
*432 FILLER_0_6480
*433 FILLER_0_6496
*434 FILLER_0_6512
*435 FILLER_0_6528
*436 FILLER_0_6544
*437 FILLER_0_656
*438 FILLER_0_6560
*439 FILLER_0_6576
*440 FILLER_0_6592
*441 FILLER_0_6608
*442 FILLER_0_6624
*443 FILLER_0_6640
*444 FILLER_0_6656
*445 FILLER_0_6672
*446 FILLER_0_6688
*447 FILLER_0_6704
*448 FILLER_0_672
*449 FILLER_0_6720
*450 FILLER_0_6736
*451 FILLER_0_6752
*452 FILLER_0_6768
*453 FILLER_0_6784
*454 FILLER_0_6800
*455 FILLER_0_6816
*456 FILLER_0_6832
*457 FILLER_0_6848
*458 FILLER_0_6864
*459 FILLER_0_688
*460 FILLER_0_6880
*461 FILLER_0_6896
*462 FILLER_0_6912
*463 FILLER_0_6928
*464 FILLER_0_6944
*465 FILLER_0_6960
*466 FILLER_0_6976
*467 FILLER_0_6992
*468 FILLER_0_7008
*469 FILLER_0_7024
*470 FILLER_0_704
*471 FILLER_0_7040
*472 FILLER_0_7056
*473 FILLER_0_7072
*474 FILLER_0_7088
*475 FILLER_0_7104
*476 FILLER_0_7120
*477 FILLER_0_7136
*478 FILLER_0_7152
*479 FILLER_0_7168
*480 FILLER_0_7184
*481 FILLER_0_720
*482 FILLER_0_7200
*483 FILLER_0_7216
*484 FILLER_0_7232
*485 FILLER_0_7248
*486 FILLER_0_7264
*487 FILLER_0_7280
*488 FILLER_0_7296
*489 FILLER_0_7312
*490 FILLER_0_7328
*491 FILLER_0_7344
*492 FILLER_0_736
*493 FILLER_0_7360
*494 FILLER_0_7376
*495 FILLER_0_7392
*496 FILLER_0_7408
*497 FILLER_0_7424
*498 FILLER_0_7440
*499 FILLER_0_7456
*500 FILLER_0_7472
*501 FILLER_0_7488
*502 FILLER_0_7504
*503 FILLER_0_752
*504 FILLER_0_7520
*505 FILLER_0_7536
*506 FILLER_0_7552
*507 FILLER_0_7568
*508 FILLER_0_7584
*509 FILLER_0_7600
*510 FILLER_0_7616
*511 FILLER_0_7632
*512 FILLER_0_7648
*513 FILLER_0_7664
*514 FILLER_0_768
*515 FILLER_0_7680
*516 FILLER_0_7696
*517 FILLER_0_7712
*518 FILLER_0_7728
*519 FILLER_0_7744
*520 FILLER_0_7760
*521 FILLER_0_7776
*522 FILLER_0_7792
*523 FILLER_0_7808
*524 FILLER_0_7824
*525 FILLER_0_784
*526 FILLER_0_7840
*527 FILLER_0_7856
*528 FILLER_0_7872
*529 FILLER_0_7888
*530 FILLER_0_7904
*531 FILLER_0_7920
*532 FILLER_0_7936
*533 FILLER_0_7952
*534 FILLER_0_7968
*535 FILLER_0_7984
*536 FILLER_0_80
*537 FILLER_0_800
*538 FILLER_0_8000
*539 FILLER_0_8016
*540 FILLER_0_8032
*541 FILLER_0_8048
*542 FILLER_0_8064
*543 FILLER_0_8080
*544 FILLER_0_8096
*545 FILLER_0_8112
*546 FILLER_0_8128
*547 FILLER_0_8144
*548 FILLER_0_816
*549 FILLER_0_8160
*550 FILLER_0_8176
*551 FILLER_0_8192
*552 FILLER_0_8208
*553 FILLER_0_8224
*554 FILLER_0_8240
*555 FILLER_0_8256
*556 FILLER_0_8272
*557 FILLER_0_8288
*558 FILLER_0_8304
*559 FILLER_0_832
*560 FILLER_0_8320
*561 FILLER_0_8336
*562 FILLER_0_8352
*563 FILLER_0_8368
*564 FILLER_0_8384
*565 FILLER_0_8400
*566 FILLER_0_8416
*567 FILLER_0_8432
*568 FILLER_0_8448
*569 FILLER_0_8464
*570 FILLER_0_848
*571 FILLER_0_8480
*572 FILLER_0_8496
*573 FILLER_0_8512
*574 FILLER_0_8528
*575 FILLER_0_8544
*576 FILLER_0_8560
*577 FILLER_0_8576
*578 FILLER_0_8592
*579 FILLER_0_8608
*580 FILLER_0_8624
*581 FILLER_0_864
*582 FILLER_0_8640
*583 FILLER_0_8656
*584 FILLER_0_8672
*585 FILLER_0_8688
*586 FILLER_0_8704
*587 FILLER_0_8720
*588 FILLER_0_8736
*589 FILLER_0_8752
*590 FILLER_0_8768
*591 FILLER_0_8784
*592 FILLER_0_880
*593 FILLER_0_8800
*594 FILLER_0_8816
*595 FILLER_0_8832
*596 FILLER_0_8848
*597 FILLER_0_8864
*598 FILLER_0_8880
*599 FILLER_0_8896
*600 FILLER_0_8912
*601 FILLER_0_8928
*602 FILLER_0_8944
*603 FILLER_0_896
*604 FILLER_0_8960
*605 FILLER_0_912
*606 FILLER_0_928
*607 FILLER_0_944
*608 FILLER_0_96
*609 FILLER_0_960
*610 FILLER_0_976
*611 FILLER_0_992
*612 FILLER_10_0
*613 FILLER_10_1008
*614 FILLER_10_1024
*615 FILLER_10_1040
*616 FILLER_10_1056
*617 FILLER_10_1072
*618 FILLER_10_1088
*619 FILLER_10_1104
*620 FILLER_10_112
*621 FILLER_10_1120
*622 FILLER_10_1136
*623 FILLER_10_1152
*624 FILLER_10_1168
*625 FILLER_10_1184
*626 FILLER_10_1200
*627 FILLER_10_1216
*628 FILLER_10_1232
*629 FILLER_10_1248
*630 FILLER_10_1264
*631 FILLER_10_128
*632 FILLER_10_1280
*633 FILLER_10_1296
*634 FILLER_10_1312
*635 FILLER_10_1328
*636 FILLER_10_1344
*637 FILLER_10_1360
*638 FILLER_10_1376
*639 FILLER_10_1392
*640 FILLER_10_1408
*641 FILLER_10_1424
*642 FILLER_10_144
*643 FILLER_10_1440
*644 FILLER_10_1456
*645 FILLER_10_1472
*646 FILLER_10_1488
*647 FILLER_10_1504
*648 FILLER_10_1520
*649 FILLER_10_1536
*650 FILLER_10_1552
*651 FILLER_10_1568
*652 FILLER_10_1584
*653 FILLER_10_16
*654 FILLER_10_160
*655 FILLER_10_1600
*656 FILLER_10_1616
*657 FILLER_10_1632
*658 FILLER_10_1648
*659 FILLER_10_1664
*660 FILLER_10_1680
*661 FILLER_10_1696
*662 FILLER_10_1712
*663 FILLER_10_1728
*664 FILLER_10_1744
*665 FILLER_10_176
*666 FILLER_10_1760
*667 FILLER_10_1776
*668 FILLER_10_1792
*669 FILLER_10_1808
*670 FILLER_10_1824
*671 FILLER_10_1840
*672 FILLER_10_1856
*673 FILLER_10_1872
*674 FILLER_10_1888
*675 FILLER_10_1904
*676 FILLER_10_192
*677 FILLER_10_1920
*678 FILLER_10_1936
*679 FILLER_10_1952
*680 FILLER_10_1968
*681 FILLER_10_1984
*682 FILLER_10_2000
*683 FILLER_10_2016
*684 FILLER_10_2032
*685 FILLER_10_2048
*686 FILLER_10_2064
*687 FILLER_10_208
*688 FILLER_10_2080
*689 FILLER_10_2096
*690 FILLER_10_2112
*691 FILLER_10_2128
*692 FILLER_10_2144
*693 FILLER_10_2160
*694 FILLER_10_2176
*695 FILLER_10_2192
*696 FILLER_10_2208
*697 FILLER_10_2224
*698 FILLER_10_224
*699 FILLER_10_2240
*700 FILLER_10_2256
*701 FILLER_10_2272
*702 FILLER_10_2288
*703 FILLER_10_2304
*704 FILLER_10_2320
*705 FILLER_10_2336
*706 FILLER_10_2352
*707 FILLER_10_2368
*708 FILLER_10_2384
*709 FILLER_10_240
*710 FILLER_10_2400
*711 FILLER_10_2416
*712 FILLER_10_2432
*713 FILLER_10_2448
*714 FILLER_10_2464
*715 FILLER_10_2480
*716 FILLER_10_2496
*717 FILLER_10_2512
*718 FILLER_10_2528
*719 FILLER_10_2544
*720 FILLER_10_256
*721 FILLER_10_2560
*722 FILLER_10_2576
*723 FILLER_10_2592
*724 FILLER_10_2608
*725 FILLER_10_2624
*726 FILLER_10_2640
*727 FILLER_10_2656
*728 FILLER_10_2672
*729 FILLER_10_2688
*730 FILLER_10_2704
*731 FILLER_10_272
*732 FILLER_10_2720
*733 FILLER_10_2736
*734 FILLER_10_2752
*735 FILLER_10_2768
*736 FILLER_10_2784
*737 FILLER_10_2800
*738 FILLER_10_2816
*739 FILLER_10_2832
*740 FILLER_10_2848
*741 FILLER_10_2864
*742 FILLER_10_288
*743 FILLER_10_2880
*744 FILLER_10_2896
*745 FILLER_10_2912
*746 FILLER_10_2928
*747 FILLER_10_2944
*748 FILLER_10_2960
*749 FILLER_10_2976
*750 FILLER_10_2992
*751 FILLER_10_3008
*752 FILLER_10_3024
*753 FILLER_10_304
*754 FILLER_10_3040
*755 FILLER_10_3056
*756 FILLER_10_3072
*757 FILLER_10_3088
*758 FILLER_10_3104
*759 FILLER_10_3120
*760 FILLER_10_3136
*761 FILLER_10_3152
*762 FILLER_10_3168
*763 FILLER_10_3184
*764 FILLER_10_32
*765 FILLER_10_320
*766 FILLER_10_3200
*767 FILLER_10_3216
*768 FILLER_10_3232
*769 FILLER_10_3248
*770 FILLER_10_3264
*771 FILLER_10_3280
*772 FILLER_10_3296
*773 FILLER_10_3312
*774 FILLER_10_3328
*775 FILLER_10_3344
*776 FILLER_10_336
*777 FILLER_10_3360
*778 FILLER_10_3376
*779 FILLER_10_3392
*780 FILLER_10_3408
*781 FILLER_10_3424
*782 FILLER_10_3440
*783 FILLER_10_3456
*784 FILLER_10_3472
*785 FILLER_10_3488
*786 FILLER_10_3504
*787 FILLER_10_352
*788 FILLER_10_3520
*789 FILLER_10_3536
*790 FILLER_10_3552
*791 FILLER_10_3568
*792 FILLER_10_3584
*793 FILLER_10_3600
*794 FILLER_10_3616
*795 FILLER_10_3632
*796 FILLER_10_3648
*797 FILLER_10_3664
*798 FILLER_10_368
*799 FILLER_10_3680
*800 FILLER_10_3696
*801 FILLER_10_3712
*802 FILLER_10_3728
*803 FILLER_10_3744
*804 FILLER_10_3760
*805 FILLER_10_3776
*806 FILLER_10_3792
*807 FILLER_10_3808
*808 FILLER_10_3824
*809 FILLER_10_384
*810 FILLER_10_3840
*811 FILLER_10_3856
*812 FILLER_10_3872
*813 FILLER_10_3888
*814 FILLER_10_3904
*815 FILLER_10_3920
*816 FILLER_10_3936
*817 FILLER_10_3952
*818 FILLER_10_3968
*819 FILLER_10_3984
*820 FILLER_10_400
*821 FILLER_10_4000
*822 FILLER_10_4016
*823 FILLER_10_4032
*824 FILLER_10_4048
*825 FILLER_10_4064
*826 FILLER_10_4080
*827 FILLER_10_4096
*828 FILLER_10_4112
*829 FILLER_10_4128
*830 FILLER_10_4144
*831 FILLER_10_416
*832 FILLER_10_4160
*833 FILLER_10_4176
*834 FILLER_10_4192
*835 FILLER_10_4208
*836 FILLER_10_4224
*837 FILLER_10_4240
*838 FILLER_10_4256
*839 FILLER_10_4272
*840 FILLER_10_4288
*841 FILLER_10_4304
*842 FILLER_10_432
*843 FILLER_10_4320
*844 FILLER_10_4336
*845 FILLER_10_4352
*846 FILLER_10_4368
*847 FILLER_10_4384
*848 FILLER_10_4400
*849 FILLER_10_4416
*850 FILLER_10_4432
*851 FILLER_10_4448
*852 FILLER_10_4464
*853 FILLER_10_448
*854 FILLER_10_4480
*855 FILLER_10_4496
*856 FILLER_10_4512
*857 FILLER_10_4528
*858 FILLER_10_4544
*859 FILLER_10_4560
*860 FILLER_10_4576
*861 FILLER_10_4592
*862 FILLER_10_4608
*863 FILLER_10_4624
*864 FILLER_10_464
*865 FILLER_10_4640
*866 FILLER_10_4656
*867 FILLER_10_4672
*868 FILLER_10_4688
*869 FILLER_10_4704
*870 FILLER_10_4720
*871 FILLER_10_4736
*872 FILLER_10_4752
*873 FILLER_10_4768
*874 FILLER_10_4784
*875 FILLER_10_48
*876 FILLER_10_480
*877 FILLER_10_4800
*878 FILLER_10_4816
*879 FILLER_10_4832
*880 FILLER_10_4848
*881 FILLER_10_4864
*882 FILLER_10_4880
*883 FILLER_10_4896
*884 FILLER_10_4912
*885 FILLER_10_4928
*886 FILLER_10_4944
*887 FILLER_10_496
*888 FILLER_10_4960
*889 FILLER_10_4976
*890 FILLER_10_4992
*891 FILLER_10_5008
*892 FILLER_10_5024
*893 FILLER_10_5040
*894 FILLER_10_5056
*895 FILLER_10_5072
*896 FILLER_10_5088
*897 FILLER_10_5104
*898 FILLER_10_512
*899 FILLER_10_5120
*900 FILLER_10_5136
*901 FILLER_10_5152
*902 FILLER_10_5168
*903 FILLER_10_5184
*904 FILLER_10_5200
*905 FILLER_10_5216
*906 FILLER_10_5232
*907 FILLER_10_5248
*908 FILLER_10_5264
*909 FILLER_10_528
*910 FILLER_10_5280
*911 FILLER_10_5296
*912 FILLER_10_5312
*913 FILLER_10_5328
*914 FILLER_10_5344
*915 FILLER_10_5360
*916 FILLER_10_5376
*917 FILLER_10_5392
*918 FILLER_10_5408
*919 FILLER_10_5424
*920 FILLER_10_544
*921 FILLER_10_5440
*922 FILLER_10_5456
*923 FILLER_10_5472
*924 FILLER_10_5488
*925 FILLER_10_5504
*926 FILLER_10_5520
*927 FILLER_10_5536
*928 FILLER_10_5552
*929 FILLER_10_5568
*930 FILLER_10_5584
*931 FILLER_10_560
*932 FILLER_10_5600
*933 FILLER_10_5616
*934 FILLER_10_5632
*935 FILLER_10_5648
*936 FILLER_10_5664
*937 FILLER_10_5680
*938 FILLER_10_5696
*939 FILLER_10_5712
*940 FILLER_10_5728
*941 FILLER_10_5744
*942 FILLER_10_576
*943 FILLER_10_5760
*944 FILLER_10_5776
*945 FILLER_10_5792
*946 FILLER_10_5808
*947 FILLER_10_5824
*948 FILLER_10_5840
*949 FILLER_10_5856
*950 FILLER_10_5872
*951 FILLER_10_5888
*952 FILLER_10_5904
*953 FILLER_10_592
*954 FILLER_10_5920
*955 FILLER_10_5936
*956 FILLER_10_5952
*957 FILLER_10_5968
*958 FILLER_10_5984
*959 FILLER_10_6000
*960 FILLER_10_6016
*961 FILLER_10_6032
*962 FILLER_10_6048
*963 FILLER_10_6064
*964 FILLER_10_608
*965 FILLER_10_6080
*966 FILLER_10_6096
*967 FILLER_10_6112
*968 FILLER_10_6128
*969 FILLER_10_6144
*970 FILLER_10_6160
*971 FILLER_10_6176
*972 FILLER_10_6192
*973 FILLER_10_6208
*974 FILLER_10_6224
*975 FILLER_10_624
*976 FILLER_10_6240
*977 FILLER_10_6256
*978 FILLER_10_6272
*979 FILLER_10_6288
*980 FILLER_10_6304
*981 FILLER_10_6320
*982 FILLER_10_6336
*983 FILLER_10_6352
*984 FILLER_10_6368
*985 FILLER_10_6384
*986 FILLER_10_64
*987 FILLER_10_640
*988 FILLER_10_6400
*989 FILLER_10_6416
*990 FILLER_10_6432
*991 FILLER_10_6448
*992 FILLER_10_6464
*993 FILLER_10_6480
*994 FILLER_10_6496
*995 FILLER_10_6512
*996 FILLER_10_6528
*997 FILLER_10_6544
*998 FILLER_10_656
*999 FILLER_10_6560
*1000 FILLER_10_6576
*1001 FILLER_10_6592
*1002 FILLER_10_6608
*1003 FILLER_10_6624
*1004 FILLER_10_6640
*1005 FILLER_10_6656
*1006 FILLER_10_6672
*1007 FILLER_10_6688
*1008 FILLER_10_6704
*1009 FILLER_10_672
*1010 FILLER_10_6720
*1011 FILLER_10_6736
*1012 FILLER_10_6752
*1013 FILLER_10_6768
*1014 FILLER_10_6784
*1015 FILLER_10_6800
*1016 FILLER_10_6816
*1017 FILLER_10_6832
*1018 FILLER_10_6848
*1019 FILLER_10_6864
*1020 FILLER_10_688
*1021 FILLER_10_6880
*1022 FILLER_10_6896
*1023 FILLER_10_6912
*1024 FILLER_10_6928
*1025 FILLER_10_6944
*1026 FILLER_10_6960
*1027 FILLER_10_6976
*1028 FILLER_10_6992
*1029 FILLER_10_7008
*1030 FILLER_10_7024
*1031 FILLER_10_704
*1032 FILLER_10_7040
*1033 FILLER_10_7056
*1034 FILLER_10_7072
*1035 FILLER_10_7088
*1036 FILLER_10_7104
*1037 FILLER_10_7120
*1038 FILLER_10_7136
*1039 FILLER_10_7152
*1040 FILLER_10_7168
*1041 FILLER_10_7184
*1042 FILLER_10_720
*1043 FILLER_10_7200
*1044 FILLER_10_7216
*1045 FILLER_10_7232
*1046 FILLER_10_7248
*1047 FILLER_10_7264
*1048 FILLER_10_7280
*1049 FILLER_10_7296
*1050 FILLER_10_7312
*1051 FILLER_10_7328
*1052 FILLER_10_7344
*1053 FILLER_10_736
*1054 FILLER_10_7360
*1055 FILLER_10_7376
*1056 FILLER_10_7392
*1057 FILLER_10_7408
*1058 FILLER_10_7424
*1059 FILLER_10_7440
*1060 FILLER_10_7456
*1061 FILLER_10_7472
*1062 FILLER_10_7488
*1063 FILLER_10_7504
*1064 FILLER_10_752
*1065 FILLER_10_7520
*1066 FILLER_10_7536
*1067 FILLER_10_7552
*1068 FILLER_10_7568
*1069 FILLER_10_7584
*1070 FILLER_10_7600
*1071 FILLER_10_7616
*1072 FILLER_10_7632
*1073 FILLER_10_7648
*1074 FILLER_10_7664
*1075 FILLER_10_768
*1076 FILLER_10_7680
*1077 FILLER_10_7696
*1078 FILLER_10_7712
*1079 FILLER_10_7728
*1080 FILLER_10_7744
*1081 FILLER_10_7760
*1082 FILLER_10_7776
*1083 FILLER_10_7792
*1084 FILLER_10_7808
*1085 FILLER_10_7824
*1086 FILLER_10_784
*1087 FILLER_10_7840
*1088 FILLER_10_7856
*1089 FILLER_10_7872
*1090 FILLER_10_7888
*1091 FILLER_10_7904
*1092 FILLER_10_7920
*1093 FILLER_10_7936
*1094 FILLER_10_7952
*1095 FILLER_10_7968
*1096 FILLER_10_7984
*1097 FILLER_10_80
*1098 FILLER_10_800
*1099 FILLER_10_8000
*1100 FILLER_10_8016
*1101 FILLER_10_8032
*1102 FILLER_10_8048
*1103 FILLER_10_8064
*1104 FILLER_10_8080
*1105 FILLER_10_8096
*1106 FILLER_10_8112
*1107 FILLER_10_8128
*1108 FILLER_10_8144
*1109 FILLER_10_816
*1110 FILLER_10_8160
*1111 FILLER_10_8176
*1112 FILLER_10_8192
*1113 FILLER_10_8208
*1114 FILLER_10_8224
*1115 FILLER_10_8240
*1116 FILLER_10_8256
*1117 FILLER_10_8272
*1118 FILLER_10_8288
*1119 FILLER_10_8304
*1120 FILLER_10_832
*1121 FILLER_10_8320
*1122 FILLER_10_8336
*1123 FILLER_10_8352
*1124 FILLER_10_8368
*1125 FILLER_10_8384
*1126 FILLER_10_8400
*1127 FILLER_10_8416
*1128 FILLER_10_8432
*1129 FILLER_10_8448
*1130 FILLER_10_8464
*1131 FILLER_10_848
*1132 FILLER_10_8480
*1133 FILLER_10_8496
*1134 FILLER_10_8512
*1135 FILLER_10_8528
*1136 FILLER_10_8544
*1137 FILLER_10_8560
*1138 FILLER_10_8576
*1139 FILLER_10_8592
*1140 FILLER_10_8608
*1141 FILLER_10_8624
*1142 FILLER_10_864
*1143 FILLER_10_8640
*1144 FILLER_10_8656
*1145 FILLER_10_8672
*1146 FILLER_10_8688
*1147 FILLER_10_8704
*1148 FILLER_10_8720
*1149 FILLER_10_8736
*1150 FILLER_10_8752
*1151 FILLER_10_8768
*1152 FILLER_10_8784
*1153 FILLER_10_880
*1154 FILLER_10_8800
*1155 FILLER_10_8816
*1156 FILLER_10_8832
*1157 FILLER_10_8848
*1158 FILLER_10_8864
*1159 FILLER_10_8880
*1160 FILLER_10_8896
*1161 FILLER_10_8912
*1162 FILLER_10_8928
*1163 FILLER_10_8944
*1164 FILLER_10_896
*1165 FILLER_10_8960
*1166 FILLER_10_912
*1167 FILLER_10_928
*1168 FILLER_10_944
*1169 FILLER_10_96
*1170 FILLER_10_960
*1171 FILLER_10_976
*1172 FILLER_10_992
*1173 FILLER_11_0
*1174 FILLER_11_1008
*1175 FILLER_11_1024
*1176 FILLER_11_1040
*1177 FILLER_11_1056
*1178 FILLER_11_1072
*1179 FILLER_11_1088
*1180 FILLER_11_1104
*1181 FILLER_11_112
*1182 FILLER_11_1120
*1183 FILLER_11_1136
*1184 FILLER_11_1152
*1185 FILLER_11_1168
*1186 FILLER_11_1184
*1187 FILLER_11_1200
*1188 FILLER_11_1216
*1189 FILLER_11_1232
*1190 FILLER_11_1248
*1191 FILLER_11_1264
*1192 FILLER_11_128
*1193 FILLER_11_1280
*1194 FILLER_11_1296
*1195 FILLER_11_1312
*1196 FILLER_11_1328
*1197 FILLER_11_1344
*1198 FILLER_11_1360
*1199 FILLER_11_1376
*1200 FILLER_11_1392
*1201 FILLER_11_1408
*1202 FILLER_11_1424
*1203 FILLER_11_144
*1204 FILLER_11_1440
*1205 FILLER_11_1456
*1206 FILLER_11_1472
*1207 FILLER_11_1488
*1208 FILLER_11_1504
*1209 FILLER_11_1520
*1210 FILLER_11_1536
*1211 FILLER_11_1552
*1212 FILLER_11_1568
*1213 FILLER_11_1584
*1214 FILLER_11_16
*1215 FILLER_11_160
*1216 FILLER_11_1600
*1217 FILLER_11_1616
*1218 FILLER_11_1632
*1219 FILLER_11_1648
*1220 FILLER_11_1664
*1221 FILLER_11_1680
*1222 FILLER_11_1696
*1223 FILLER_11_1712
*1224 FILLER_11_1728
*1225 FILLER_11_1744
*1226 FILLER_11_176
*1227 FILLER_11_1760
*1228 FILLER_11_1776
*1229 FILLER_11_1792
*1230 FILLER_11_1808
*1231 FILLER_11_1824
*1232 FILLER_11_1840
*1233 FILLER_11_1856
*1234 FILLER_11_1872
*1235 FILLER_11_1888
*1236 FILLER_11_1904
*1237 FILLER_11_192
*1238 FILLER_11_1920
*1239 FILLER_11_1936
*1240 FILLER_11_1952
*1241 FILLER_11_1968
*1242 FILLER_11_1984
*1243 FILLER_11_2000
*1244 FILLER_11_2016
*1245 FILLER_11_2032
*1246 FILLER_11_2048
*1247 FILLER_11_2064
*1248 FILLER_11_208
*1249 FILLER_11_2080
*1250 FILLER_11_2096
*1251 FILLER_11_2112
*1252 FILLER_11_2128
*1253 FILLER_11_2144
*1254 FILLER_11_2160
*1255 FILLER_11_2176
*1256 FILLER_11_2192
*1257 FILLER_11_2208
*1258 FILLER_11_2224
*1259 FILLER_11_224
*1260 FILLER_11_2240
*1261 FILLER_11_2256
*1262 FILLER_11_2272
*1263 FILLER_11_2288
*1264 FILLER_11_2304
*1265 FILLER_11_2320
*1266 FILLER_11_2336
*1267 FILLER_11_2352
*1268 FILLER_11_2368
*1269 FILLER_11_2384
*1270 FILLER_11_240
*1271 FILLER_11_2400
*1272 FILLER_11_2416
*1273 FILLER_11_2432
*1274 FILLER_11_2448
*1275 FILLER_11_2464
*1276 FILLER_11_2480
*1277 FILLER_11_2496
*1278 FILLER_11_2512
*1279 FILLER_11_2528
*1280 FILLER_11_2544
*1281 FILLER_11_256
*1282 FILLER_11_2560
*1283 FILLER_11_2576
*1284 FILLER_11_2592
*1285 FILLER_11_2608
*1286 FILLER_11_2624
*1287 FILLER_11_2640
*1288 FILLER_11_2656
*1289 FILLER_11_2672
*1290 FILLER_11_2688
*1291 FILLER_11_2704
*1292 FILLER_11_272
*1293 FILLER_11_2720
*1294 FILLER_11_2736
*1295 FILLER_11_2752
*1296 FILLER_11_2768
*1297 FILLER_11_2784
*1298 FILLER_11_2800
*1299 FILLER_11_2816
*1300 FILLER_11_2832
*1301 FILLER_11_2848
*1302 FILLER_11_2864
*1303 FILLER_11_288
*1304 FILLER_11_2880
*1305 FILLER_11_2896
*1306 FILLER_11_2912
*1307 FILLER_11_2928
*1308 FILLER_11_2944
*1309 FILLER_11_2960
*1310 FILLER_11_2976
*1311 FILLER_11_2992
*1312 FILLER_11_3008
*1313 FILLER_11_3024
*1314 FILLER_11_304
*1315 FILLER_11_3040
*1316 FILLER_11_3056
*1317 FILLER_11_3072
*1318 FILLER_11_3088
*1319 FILLER_11_3104
*1320 FILLER_11_3120
*1321 FILLER_11_3136
*1322 FILLER_11_3152
*1323 FILLER_11_3168
*1324 FILLER_11_3184
*1325 FILLER_11_32
*1326 FILLER_11_320
*1327 FILLER_11_3200
*1328 FILLER_11_3216
*1329 FILLER_11_3232
*1330 FILLER_11_3248
*1331 FILLER_11_3264
*1332 FILLER_11_3280
*1333 FILLER_11_3296
*1334 FILLER_11_3312
*1335 FILLER_11_3328
*1336 FILLER_11_3344
*1337 FILLER_11_336
*1338 FILLER_11_3360
*1339 FILLER_11_3376
*1340 FILLER_11_3392
*1341 FILLER_11_3408
*1342 FILLER_11_3424
*1343 FILLER_11_3440
*1344 FILLER_11_3456
*1345 FILLER_11_3472
*1346 FILLER_11_3488
*1347 FILLER_11_3504
*1348 FILLER_11_352
*1349 FILLER_11_3520
*1350 FILLER_11_3536
*1351 FILLER_11_3552
*1352 FILLER_11_3568
*1353 FILLER_11_3584
*1354 FILLER_11_3600
*1355 FILLER_11_3616
*1356 FILLER_11_3632
*1357 FILLER_11_3648
*1358 FILLER_11_3664
*1359 FILLER_11_368
*1360 FILLER_11_3680
*1361 FILLER_11_3696
*1362 FILLER_11_3712
*1363 FILLER_11_3728
*1364 FILLER_11_3744
*1365 FILLER_11_3760
*1366 FILLER_11_3776
*1367 FILLER_11_3792
*1368 FILLER_11_3808
*1369 FILLER_11_3824
*1370 FILLER_11_384
*1371 FILLER_11_3840
*1372 FILLER_11_3856
*1373 FILLER_11_3872
*1374 FILLER_11_3888
*1375 FILLER_11_3904
*1376 FILLER_11_3920
*1377 FILLER_11_3936
*1378 FILLER_11_3952
*1379 FILLER_11_3968
*1380 FILLER_11_3984
*1381 FILLER_11_400
*1382 FILLER_11_4000
*1383 FILLER_11_4016
*1384 FILLER_11_4032
*1385 FILLER_11_4048
*1386 FILLER_11_4064
*1387 FILLER_11_4080
*1388 FILLER_11_4096
*1389 FILLER_11_4112
*1390 FILLER_11_4128
*1391 FILLER_11_4144
*1392 FILLER_11_416
*1393 FILLER_11_4160
*1394 FILLER_11_4176
*1395 FILLER_11_4192
*1396 FILLER_11_4208
*1397 FILLER_11_4224
*1398 FILLER_11_4240
*1399 FILLER_11_4256
*1400 FILLER_11_4272
*1401 FILLER_11_4288
*1402 FILLER_11_4304
*1403 FILLER_11_432
*1404 FILLER_11_4320
*1405 FILLER_11_4336
*1406 FILLER_11_4352
*1407 FILLER_11_4368
*1408 FILLER_11_4384
*1409 FILLER_11_4400
*1410 FILLER_11_4416
*1411 FILLER_11_4432
*1412 FILLER_11_4448
*1413 FILLER_11_4464
*1414 FILLER_11_448
*1415 FILLER_11_4480
*1416 FILLER_11_4496
*1417 FILLER_11_4512
*1418 FILLER_11_4528
*1419 FILLER_11_4544
*1420 FILLER_11_4560
*1421 FILLER_11_4576
*1422 FILLER_11_4592
*1423 FILLER_11_4608
*1424 FILLER_11_4624
*1425 FILLER_11_464
*1426 FILLER_11_4640
*1427 FILLER_11_4656
*1428 FILLER_11_4672
*1429 FILLER_11_4688
*1430 FILLER_11_4704
*1431 FILLER_11_4720
*1432 FILLER_11_4736
*1433 FILLER_11_4752
*1434 FILLER_11_4768
*1435 FILLER_11_4784
*1436 FILLER_11_48
*1437 FILLER_11_480
*1438 FILLER_11_4800
*1439 FILLER_11_4816
*1440 FILLER_11_4832
*1441 FILLER_11_4848
*1442 FILLER_11_4864
*1443 FILLER_11_4880
*1444 FILLER_11_4896
*1445 FILLER_11_4912
*1446 FILLER_11_4928
*1447 FILLER_11_4944
*1448 FILLER_11_496
*1449 FILLER_11_4960
*1450 FILLER_11_4976
*1451 FILLER_11_4992
*1452 FILLER_11_5008
*1453 FILLER_11_5024
*1454 FILLER_11_5040
*1455 FILLER_11_5056
*1456 FILLER_11_5072
*1457 FILLER_11_5088
*1458 FILLER_11_5104
*1459 FILLER_11_512
*1460 FILLER_11_5120
*1461 FILLER_11_5136
*1462 FILLER_11_5152
*1463 FILLER_11_5168
*1464 FILLER_11_5184
*1465 FILLER_11_5200
*1466 FILLER_11_5216
*1467 FILLER_11_5232
*1468 FILLER_11_5248
*1469 FILLER_11_5264
*1470 FILLER_11_528
*1471 FILLER_11_5280
*1472 FILLER_11_5296
*1473 FILLER_11_5312
*1474 FILLER_11_5328
*1475 FILLER_11_5344
*1476 FILLER_11_5360
*1477 FILLER_11_5376
*1478 FILLER_11_5392
*1479 FILLER_11_5408
*1480 FILLER_11_5424
*1481 FILLER_11_544
*1482 FILLER_11_5440
*1483 FILLER_11_5456
*1484 FILLER_11_5472
*1485 FILLER_11_5488
*1486 FILLER_11_5504
*1487 FILLER_11_5520
*1488 FILLER_11_5536
*1489 FILLER_11_5552
*1490 FILLER_11_5568
*1491 FILLER_11_5584
*1492 FILLER_11_560
*1493 FILLER_11_5600
*1494 FILLER_11_5616
*1495 FILLER_11_5632
*1496 FILLER_11_5648
*1497 FILLER_11_5664
*1498 FILLER_11_5680
*1499 FILLER_11_5696
*1500 FILLER_11_5712
*1501 FILLER_11_5728
*1502 FILLER_11_5744
*1503 FILLER_11_576
*1504 FILLER_11_5760
*1505 FILLER_11_5776
*1506 FILLER_11_5792
*1507 FILLER_11_5808
*1508 FILLER_11_5824
*1509 FILLER_11_5840
*1510 FILLER_11_5856
*1511 FILLER_11_5872
*1512 FILLER_11_5888
*1513 FILLER_11_5904
*1514 FILLER_11_592
*1515 FILLER_11_5920
*1516 FILLER_11_5936
*1517 FILLER_11_5952
*1518 FILLER_11_5968
*1519 FILLER_11_5984
*1520 FILLER_11_6000
*1521 FILLER_11_6016
*1522 FILLER_11_6032
*1523 FILLER_11_6048
*1524 FILLER_11_6064
*1525 FILLER_11_608