*SPEF "ieee 1481-1999"
*DESIGN "user_proj_example"
*DATE "11:11:11 Fri 11 11, 1111"
*VENDOR "OpenRCX"
*PROGRAM "Parallel Extraction"
*VERSION "1.0"
*DESIGN_FLOW "NAME_SCOPE LOCAL" "PIN_CAP NONE"
*DIVIDER /
*DELIMITER :
*BUS_DELIMITER []
*T_UNIT 1 NS
*C_UNIT 1 PF
*R_UNIT 1 OHM
*L_UNIT 1 HENRY

*NAME_MAP
*1 io_in[0]
*2 io_in[10]
*3 io_in[11]
*4 io_in[12]
*5 io_in[13]
*6 io_in[14]
*7 io_in[15]
*8 io_in[16]
*9 io_in[17]
*10 io_in[18]
*11 io_in[19]
*12 io_in[1]
*13 io_in[20]
*14 io_in[21]
*15 io_in[22]
*16 io_in[23]
*17 io_in[24]
*18 io_in[25]
*19 io_in[26]
*20 io_in[27]
*21 io_in[28]
*22 io_in[29]
*23 io_in[2]
*24 io_in[30]
*25 io_in[31]
*26 io_in[32]
*27 io_in[33]
*28 io_in[34]
*29 io_in[35]
*30 io_in[36]
*31 io_in[37]
*32 io_in[3]
*33 io_in[4]
*34 io_in[5]
*35 io_in[6]
*36 io_in[7]
*37 io_in[8]
*38 io_in[9]
*39 io_oeb[0]
*40 io_oeb[10]
*41 io_oeb[11]
*42 io_oeb[12]
*43 io_oeb[13]
*44 io_oeb[14]
*45 io_oeb[15]
*46 io_oeb[16]
*47 io_oeb[17]
*48 io_oeb[18]
*49 io_oeb[19]
*50 io_oeb[1]
*51 io_oeb[20]
*52 io_oeb[21]
*53 io_oeb[22]
*54 io_oeb[23]
*55 io_oeb[24]
*56 io_oeb[25]
*57 io_oeb[26]
*58 io_oeb[27]
*59 io_oeb[28]
*60 io_oeb[29]
*61 io_oeb[2]
*62 io_oeb[30]
*63 io_oeb[31]
*64 io_oeb[32]
*65 io_oeb[33]
*66 io_oeb[34]
*67 io_oeb[35]
*68 io_oeb[36]
*69 net305
*70 io_oeb[3]
*71 io_oeb[4]
*72 io_oeb[5]
*73 io_oeb[6]
*74 io_oeb[7]
*75 io_oeb[8]
*76 io_oeb[9]
*77 io_out[0]
*78 io_out[10]
*79 io_out[11]
*80 io_out[12]
*81 io_out[13]
*82 io_out[14]
*83 io_out[15]
*84 io_out[16]
*85 io_out[17]
*86 io_out[18]
*87 io_out[19]
*88 io_out[1]
*89 io_out[20]
*90 io_out[21]
*91 io_out[22]
*92 io_out[23]
*93 io_out[24]
*94 io_out[25]
*95 io_out[26]
*96 io_out[27]
*97 io_out[28]
*98 io_out[29]
*99 io_out[2]
*100 io_out[30]
*101 io_out[31]
*102 net306
*103 net307
*104 net308
*105 net309
*106 net310
*107 net311
*108 io_out[3]
*109 io_out[4]
*110 io_out[5]
*111 io_out[6]
*112 io_out[7]
*113 io_out[8]
*114 io_out[9]
*115 net312
*116 net313
*117 net314
*118 la_data_in[0]
*119 la_data_in[10]
*120 la_data_in[11]
*121 la_data_in[12]
*122 la_data_in[13]
*123 la_data_in[14]
*124 la_data_in[15]
*125 la_data_in[16]
*126 la_data_in[17]
*127 la_data_in[18]
*128 la_data_in[19]
*129 la_data_in[1]
*130 la_data_in[20]
*131 la_data_in[21]
*132 la_data_in[22]
*133 la_data_in[23]
*134 la_data_in[24]
*135 la_data_in[25]
*136 la_data_in[26]
*137 la_data_in[27]
*138 la_data_in[28]
*139 la_data_in[29]
*140 la_data_in[2]
*141 la_data_in[30]
*142 la_data_in[31]
*143 la_data_in[32]
*144 la_data_in[33]
*145 la_data_in[34]
*146 la_data_in[35]
*147 la_data_in[36]
*148 la_data_in[37]
*149 la_data_in[38]
*150 la_data_in[39]
*151 la_data_in[3]
*152 la_data_in[40]
*153 la_data_in[41]
*154 la_data_in[42]
*155 la_data_in[43]
*156 la_data_in[44]
*157 la_data_in[45]
*158 la_data_in[46]
*159 la_data_in[47]
*160 la_data_in[48]
*161 la_data_in[49]
*162 la_data_in[4]
*163 la_data_in[50]
*164 la_data_in[51]
*165 la_data_in[52]
*166 la_data_in[53]
*167 la_data_in[54]
*168 la_data_in[55]
*169 la_data_in[56]
*170 la_data_in[57]
*171 la_data_in[58]
*172 la_data_in[59]
*173 la_data_in[5]
*174 la_data_in[60]
*175 la_data_in[61]
*176 la_data_in[62]
*177 la_data_in[63]
*178 la_data_in[6]
*179 la_data_in[7]
*180 la_data_in[8]
*181 la_data_in[9]
*182 la_data_out[0]
*183 la_data_out[10]
*184 la_data_out[11]
*185 la_data_out[12]
*186 la_data_out[13]
*187 la_data_out[14]
*188 la_data_out[15]
*189 la_data_out[16]
*190 la_data_out[17]
*191 la_data_out[18]
*192 la_data_out[19]
*193 la_data_out[1]
*194 la_data_out[20]
*195 la_data_out[21]
*196 la_data_out[22]
*197 la_data_out[23]
*198 la_data_out[24]
*199 la_data_out[25]
*200 la_data_out[26]
*201 la_data_out[27]
*202 la_data_out[28]
*203 la_data_out[29]
*204 la_data_out[2]
*205 la_data_out[30]
*206 la_data_out[31]
*207 net315
*208 net316
*209 net317
*210 net318
*211 net319
*212 net320
*213 net321
*214 net322
*215 la_data_out[3]
*216 net323
*217 net324
*218 net325
*219 net326
*220 net327
*221 net328
*222 net329
*223 net330
*224 net331
*225 net332
*226 la_data_out[4]
*227 net333
*228 net334
*229 net335
*230 net336
*231 net337
*232 net338
*233 net339
*234 net340
*235 net341
*236 net342
*237 la_data_out[5]
*238 net343
*239 net344
*240 net345
*241 net346
*242 la_data_out[6]
*243 la_data_out[7]
*244 la_data_out[8]
*245 la_data_out[9]
*246 la_oenb[0]
*247 la_oenb[10]
*248 la_oenb[11]
*249 la_oenb[12]
*250 la_oenb[13]
*251 la_oenb[14]
*252 la_oenb[15]
*253 la_oenb[16]
*254 la_oenb[17]
*255 la_oenb[18]
*256 la_oenb[19]
*257 la_oenb[1]
*258 la_oenb[20]
*259 la_oenb[21]
*260 la_oenb[22]
*261 la_oenb[23]
*262 la_oenb[24]
*263 la_oenb[25]
*264 la_oenb[26]
*265 la_oenb[27]
*266 la_oenb[28]
*267 la_oenb[29]
*268 la_oenb[2]
*269 la_oenb[30]
*270 la_oenb[31]
*271 la_oenb[32]
*272 la_oenb[33]
*273 la_oenb[34]
*274 la_oenb[35]
*275 la_oenb[36]
*276 la_oenb[37]
*277 la_oenb[38]
*278 la_oenb[39]
*279 la_oenb[3]
*280 la_oenb[40]
*281 la_oenb[41]
*282 la_oenb[42]
*283 la_oenb[43]
*284 la_oenb[44]
*285 la_oenb[45]
*286 la_oenb[46]
*287 la_oenb[47]
*288 la_oenb[48]
*289 la_oenb[49]
*290 la_oenb[4]
*291 la_oenb[50]
*292 la_oenb[51]
*293 la_oenb[52]
*294 la_oenb[53]
*295 la_oenb[54]
*296 la_oenb[55]
*297 la_oenb[56]
*298 la_oenb[57]
*299 la_oenb[58]
*300 la_oenb[59]
*301 la_oenb[5]
*302 la_oenb[60]
*303 la_oenb[61]
*304 la_oenb[62]
*305 la_oenb[63]
*306 la_oenb[6]
*307 la_oenb[7]
*308 la_oenb[8]
*309 la_oenb[9]
*312 wb_clk_i
*313 wb_rst_i
*314 wbs_ack_o
*315 wbs_adr_i[0]
*316 wbs_adr_i[10]
*317 wbs_adr_i[11]
*318 wbs_adr_i[12]
*319 wbs_adr_i[13]
*320 wbs_adr_i[14]
*321 wbs_adr_i[15]
*322 wbs_adr_i[16]
*323 wbs_adr_i[17]
*324 wbs_adr_i[18]
*325 wbs_adr_i[19]
*326 wbs_adr_i[1]
*327 wbs_adr_i[20]
*328 wbs_adr_i[21]
*329 wbs_adr_i[22]
*330 wbs_adr_i[23]
*331 wbs_adr_i[24]
*332 wbs_adr_i[25]
*333 wbs_adr_i[26]
*334 wbs_adr_i[27]
*335 wbs_adr_i[28]
*336 wbs_adr_i[29]
*337 wbs_adr_i[2]
*338 wbs_adr_i[30]
*339 wbs_adr_i[31]
*340 wbs_adr_i[3]
*341 wbs_adr_i[4]
*342 wbs_adr_i[5]
*343 wbs_adr_i[6]
*344 wbs_adr_i[7]
*345 wbs_adr_i[8]
*346 wbs_adr_i[9]
*347 wbs_cyc_i
*348 wbs_dat_i[0]
*349 wbs_dat_i[10]
*350 wbs_dat_i[11]
*351 wbs_dat_i[12]
*352 wbs_dat_i[13]
*353 wbs_dat_i[14]
*354 wbs_dat_i[15]
*355 wbs_dat_i[16]
*356 wbs_dat_i[17]
*357 wbs_dat_i[18]
*358 wbs_dat_i[19]
*359 wbs_dat_i[1]
*360 wbs_dat_i[20]
*361 wbs_dat_i[21]
*362 wbs_dat_i[22]
*363 wbs_dat_i[23]
*364 wbs_dat_i[24]
*365 wbs_dat_i[25]
*366 wbs_dat_i[26]
*367 wbs_dat_i[27]
*368 wbs_dat_i[28]
*369 wbs_dat_i[29]
*370 wbs_dat_i[2]
*371 wbs_dat_i[30]
*372 wbs_dat_i[31]
*373 wbs_dat_i[3]
*374 wbs_dat_i[4]
*375 wbs_dat_i[5]
*376 wbs_dat_i[6]
*377 wbs_dat_i[7]
*378 wbs_dat_i[8]
*379 wbs_dat_i[9]
*380 wbs_dat_o[0]
*381 wbs_dat_o[10]
*382 wbs_dat_o[11]
*383 wbs_dat_o[12]
*384 wbs_dat_o[13]
*385 wbs_dat_o[14]
*386 wbs_dat_o[15]
*387 wbs_dat_o[16]
*388 wbs_dat_o[17]
*389 wbs_dat_o[18]
*390 wbs_dat_o[19]
*391 wbs_dat_o[1]
*392 wbs_dat_o[20]
*393 wbs_dat_o[21]
*394 wbs_dat_o[22]
*395 wbs_dat_o[23]
*396 wbs_dat_o[24]
*397 wbs_dat_o[25]
*398 wbs_dat_o[26]
*399 wbs_dat_o[27]
*400 wbs_dat_o[28]
*401 wbs_dat_o[29]
*402 wbs_dat_o[2]
*403 wbs_dat_o[30]
*404 wbs_dat_o[31]
*405 wbs_dat_o[3]
*406 wbs_dat_o[4]
*407 wbs_dat_o[5]
*408 wbs_dat_o[6]
*409 wbs_dat_o[7]
*410 wbs_dat_o[8]
*411 wbs_dat_o[9]
*412 wbs_sel_i[0]
*413 wbs_sel_i[1]
*414 wbs_sel_i[2]
*415 wbs_sel_i[3]
*416 wbs_stb_i
*417 wbs_we_i
*418 _000_
*419 _001_
*420 _002_
*421 _003_
*422 _004_
*423 _005_
*424 _006_
*425 _007_
*426 _008_
*427 _009_
*428 _010_
*429 _011_
*430 _012_
*431 _013_
*432 _014_
*433 _015_
*434 _016_
*435 _017_
*436 _018_
*437 _019_
*438 _020_
*439 _021_
*440 _022_
*441 _023_
*442 _024_
*443 _025_
*444 _026_
*445 _027_
*446 _028_
*447 _029_
*448 _030_
*449 _031_
*450 _032_
*451 _033_
*452 _034_
*453 _035_
*454 _036_
*455 _037_
*456 _038_
*457 _039_
*458 _040_
*459 _041_
*460 _042_
*461 _043_
*462 _044_
*463 _045_
*464 _046_
*465 _047_
*466 _048_
*467 _049_
*468 _050_
*469 _051_
*470 _052_
*471 _053_
*472 _054_
*473 _055_
*474 _056_
*475 _057_
*476 _058_
*477 _059_
*478 _060_
*479 _061_
*480 _062_
*481 _063_
*482 _064_
*483 _065_
*484 _066_
*485 _067_
*486 _068_
*487 _069_
*488 _070_
*489 _071_
*490 _072_
*491 _073_
*492 _074_
*493 _075_
*494 _076_
*495 _077_
*496 _078_
*497 _079_
*498 _080_
*499 _081_
*500 _082_
*501 _083_
*502 _084_
*503 _085_
*504 _086_
*505 _087_
*506 _088_
*507 _089_
*508 _090_
*509 _091_
*510 _092_
*511 _093_
*512 _094_
*513 _095_
*514 _096_
*515 _097_
*516 _098_
*517 _099_
*518 _100_
*519 _101_
*520 _102_
*521 _103_
*522 _104_
*523 _105_
*524 _106_
*525 _107_
*526 _108_
*527 _109_
*528 _110_
*529 _111_
*530 _112_
*531 _113_
*532 _114_
*533 _115_
*534 _116_
*535 _117_
*536 _118_
*537 _119_
*538 _120_
*539 _121_
*540 _122_
*541 _123_
*542 _124_
*543 _125_
*544 _126_
*545 _127_
*546 _128_
*547 _129_
*548 _130_
*549 _131_
*550 _132_
*551 _133_
*552 _134_
*553 _135_
*554 _136_
*555 _137_
*556 _138_
*557 _139_
*558 _140_
*559 _141_
*560 _142_
*561 _143_
*562 _144_
*563 _145_
*564 _146_
*565 _147_
*566 _148_
*567 _149_
*568 _150_
*569 _151_
*570 _152_
*571 _153_
*572 _154_
*573 _155_
*574 _156_
*575 _157_
*576 _158_
*577 _159_
*578 _160_
*579 _161_
*580 _162_
*581 _163_
*582 _164_
*583 _165_
*584 _166_
*585 _167_
*586 _168_
*587 _169_
*588 _170_
*589 _171_
*590 _172_
*591 _173_
*592 _174_
*593 _175_
*594 _176_
*595 _177_
*596 _178_
*597 _179_
*598 _180_
*599 _181_
*600 _182_
*601 _183_
*602 _184_
*603 _185_
*604 _186_
*605 _187_
*606 _188_
*607 _189_
*608 _190_
*609 _191_
*610 _192_
*611 _193_
*612 _194_
*613 _195_
*614 _196_
*615 _197_
*616 _198_
*617 _199_
*618 _200_
*619 _201_
*620 _202_
*621 _203_
*622 _204_
*623 _205_
*624 _206_
*625 _207_
*626 _208_
*627 _209_
*628 _210_
*629 _211_
*630 _212_
*631 _213_
*632 _214_
*633 _215_
*634 _216_
*635 _217_
*636 _218_
*637 _219_
*638 _220_
*639 _221_
*640 _222_
*641 _223_
*642 _224_
*643 _225_
*644 _226_
*645 _227_
*646 _228_
*647 _229_
*648 _230_
*649 _231_
*650 _232_
*651 _233_
*652 _234_
*653 _235_
*654 _236_
*655 _237_
*656 _238_
*657 _239_
*658 _240_
*659 _241_
*660 _242_
*661 _243_
*662 _244_
*663 _245_
*664 _246_
*665 _247_
*666 _248_
*667 _249_
*668 _250_
*669 _251_
*670 _252_
*671 _253_
*672 _254_
*673 _255_
*674 _256_
*675 _257_
*676 _258_
*677 _259_
*678 _260_
*679 _261_
*680 _262_
*681 _263_
*682 _264_
*683 _265_
*684 _266_
*685 _267_
*686 _268_
*687 _269_
*688 _270_
*689 _271_
*690 _272_
*691 _273_
*692 _274_
*693 _275_
*694 _276_
*695 _277_
*696 _278_
*697 _279_
*698 _280_
*699 _281_
*700 _282_
*701 _283_
*702 _284_
*703 _285_
*704 _286_
*705 _287_
*706 _288_
*707 _289_
*708 _290_
*709 _291_
*710 _292_
*711 _293_
*712 _294_
*713 _295_
*714 _296_
*715 _297_
*716 _298_
*717 _299_
*718 _300_
*719 _301_
*720 _302_
*721 _303_
*722 _304_
*723 _305_
*724 _306_
*725 _307_
*726 _308_
*727 _309_
*728 _310_
*729 _311_
*730 _312_
*731 _313_
*732 _314_
*733 _315_
*734 _316_
*735 _317_
*736 _318_
*737 _319_
*738 _320_
*739 _321_
*740 _322_
*741 _323_
*742 _324_
*743 _325_
*744 _326_
*745 _327_
*746 _328_
*747 _329_
*748 _330_
*749 _331_
*750 _332_
*751 _333_
*752 _334_
*753 _335_
*754 _336_
*755 _337_
*756 _338_
*757 _339_
*758 _340_
*759 _341_
*760 _342_
*761 _343_
*762 _344_
*763 _345_
*764 clknet_0_wb_clk_i
*765 clknet_3_0__leaf_wb_clk_i
*766 clknet_3_1__leaf_wb_clk_i
*767 clknet_3_2__leaf_wb_clk_i
*768 clknet_3_3__leaf_wb_clk_i
*769 clknet_3_4__leaf_wb_clk_i
*770 clknet_3_5__leaf_wb_clk_i
*771 clknet_3_6__leaf_wb_clk_i
*772 clknet_3_7__leaf_wb_clk_i
*773 net1
*774 net10
*775 net100
*776 net101
*777 net102
*778 net103
*779 net104
*780 net105
*781 net106
*782 net107
*783 net108
*784 net109
*785 net11
*786 net110
*787 net111
*788 net112
*789 net113
*790 net114
*791 net115
*792 net116
*793 net117
*794 net118
*795 net119
*796 net12
*797 net120
*798 net121
*799 net122
*800 net123
*801 net124
*802 net125
*803 net126
*804 net127
*805 net128
*806 net129
*807 net13
*808 net130
*809 net131
*810 net132
*811 net133
*812 net134
*813 net135
*814 net136
*815 net137
*816 net138
*817 net139
*818 net14
*819 net140
*820 net141
*821 net142
*822 net143
*823 net144
*824 net145
*825 net146
*826 net147
*827 net148
*828 net149
*829 net15
*830 net150
*831 net151
*832 net152
*833 net153
*834 net154
*835 net155
*836 net156
*837 net157
*838 net158
*839 net159
*840 net16
*841 net160
*842 net161
*843 net162
*844 net163
*845 net164
*846 net165
*847 net166
*848 net167
*849 net168
*850 net169
*851 net17
*852 net170
*853 net171
*854 net172
*855 net173
*856 net174
*857 net175
*858 net176
*859 net177
*860 net178
*861 net179
*862 net18
*863 net180
*864 net181
*865 net182
*866 net183
*867 net184
*868 net185
*869 net186
*870 net187
*871 net188
*872 net189
*873 net19
*874 net190
*875 net191
*876 net192
*877 net193
*878 net194
*879 net195
*880 net196
*881 net197
*882 net198
*883 net199
*884 net2
*885 net20
*886 net200
*887 net201
*888 net202
*889 net203
*890 net204
*891 net205
*892 net206
*893 net207
*894 net208
*895 net209
*896 net21
*897 net210
*898 net211
*899 net212
*900 net213
*901 net214
*902 net215
*903 net216
*904 net217
*905 net218
*906 net219
*907 net22
*908 net220
*909 net221
*910 net222
*911 net223
*912 net224
*913 net225
*914 net226
*915 net227
*916 net228
*917 net229
*918 net23
*919 net230
*920 net231
*921 net232
*922 net233
*923 net234
*924 net235
*925 net236
*926 net237
*927 net238
*928 net239
*929 net24
*930 net240
*931 net241
*932 net242
*933 net243
*934 net244
*935 net245
*936 net246
*937 net247
*938 net248
*939 net249
*940 net25
*941 net250
*942 net251
*943 net252
*944 net253
*945 net254
*946 net255
*947 net256
*948 net257
*949 net258
*950 net259
*951 net26
*952 net260
*953 net261
*954 net262
*955 net263
*956 net264
*957 net265
*958 net266
*959 net267
*960 net268
*961 net269
*962 net27
*963 net270
*964 net271
*965 net272
*966 net273
*967 net274
*968 net275
*969 net276
*970 net277
*971 net278
*972 net279
*973 net28
*974 net280
*975 net281
*976 net282
*977 net283
*978 net284
*979 net285
*980 net286
*981 net287
*982 net288
*983 net289
*984 net29
*985 net290
*986 net291
*987 net292
*988 net293
*989 net294
*990 net295
*991 net296
*992 net297
*993 net298
*994 net299
*995 net3
*996 net30
*997 net300
*998 net301
*999 net302
*1000 net303
*1001 net304
*1002 net31
*1003 net32
*1004 net33
*1005 net34
*1006 net35
*1007 net36
*1008 net37
*1009 net38
*1010 net39
*1011 net4
*1012 net40
*1013 net41
*1014 net42
*1015 net43
*1016 net44
*1017 net45
*1018 net46
*1019 net47
*1020 net48
*1021 net49
*1022 net5
*1023 net50
*1024 net51
*1025 net52
*1026 net53
*1027 net54
*1028 net55
*1029 net56
*1030 net57
*1031 net58
*1032 net59
*1033 net6
*1034 net60
*1035 net61
*1036 net62
*1037 net63
*1038 net64
*1039 net65
*1040 net66
*1041 net67
*1042 net68
*1043 net69
*1044 net7
*1045 net70
*1046 net71
*1047 net72
*1048 net73
*1049 net74
*1050 net75
*1051 net76
*1052 net77
*1053 net78
*1054 net79
*1055 net8
*1056 net80
*1057 net81
*1058 net82
*1059 net83
*1060 net84
*1061 net85
*1062 net86
*1063 net87
*1064 net88
*1065 net89
*1066 net9
*1067 net90
*1068 net91
*1069 net92
*1070 net93
*1071 net94
*1072 net95
*1073 net96
*1074 net97
*1075 net98
*1076 net99
*1077 ANTENNA__346__I
*1078 ANTENNA__348__I
*1079 ANTENNA__349__I
*1080 ANTENNA__351__A2
*1081 ANTENNA__352__A1
*1082 ANTENNA__353__I
*1083 ANTENNA__354__I
*1084 ANTENNA__355__I
*1085 ANTENNA__356__I
*1086 ANTENNA__359__I
*1087 ANTENNA__361__A1
*1088 ANTENNA__363__A1
*1089 ANTENNA__363__A2
*1090 ANTENNA__364__A1
*1091 ANTENNA__365__I
*1092 ANTENNA__367__A2
*1093 ANTENNA__369__A1
*1094 ANTENNA__369__A2
*1095 ANTENNA__369__A3
*1096 ANTENNA__370__A2
*1097 ANTENNA__371__A1
*1098 ANTENNA__372__A1
*1099 ANTENNA__373__A1
*1100 ANTENNA__374__A1
*1101 ANTENNA__375__A1
*1102 ANTENNA__376__A1
*1103 ANTENNA__376__A2
*1104 ANTENNA__376__B
*1105 ANTENNA__377__A1
*1106 ANTENNA__377__A2
*1107 ANTENNA__378__A1
*1108 ANTENNA__378__A2
*1109 ANTENNA__378__A3
*1110 ANTENNA__379__A2
*1111 ANTENNA__381__A2
*1112 ANTENNA__382__A2
*1113 ANTENNA__383__A2
*1114 ANTENNA__384__A1
*1115 ANTENNA__384__A2
*1116 ANTENNA__384__A3
*1117 ANTENNA__384__A4
*1118 ANTENNA__385__A1
*1119 ANTENNA__385__A2
*1120 ANTENNA__387__A1
*1121 ANTENNA__387__A2
*1122 ANTENNA__389__A1
*1123 ANTENNA__389__A2
*1124 ANTENNA__390__A2
*1125 ANTENNA__391__A1
*1126 ANTENNA__391__A2
*1127 ANTENNA__391__A3
*1128 ANTENNA__391__A4
*1129 ANTENNA__392__A1
*1130 ANTENNA__392__A2
*1131 ANTENNA__393__A2
*1132 ANTENNA__394__A1
*1133 ANTENNA__394__A2
*1134 ANTENNA__395__A2
*1135 ANTENNA__396__A1
*1136 ANTENNA__396__A2
*1137 ANTENNA__396__A3
*1138 ANTENNA__396__A4
*1139 ANTENNA__397__A1
*1140 ANTENNA__397__A2
*1141 ANTENNA__397__B
*1142 ANTENNA__398__A1
*1143 ANTENNA__398__A2
*1144 ANTENNA__399__A1
*1145 ANTENNA__399__A2
*1146 ANTENNA__399__B
*1147 ANTENNA__400__A2
*1148 ANTENNA__400__B
*1149 ANTENNA__401__A2
*1150 ANTENNA__404__I
*1151 ANTENNA__405__I
*1152 ANTENNA__406__I
*1153 ANTENNA__407__A1
*1154 ANTENNA__407__A2
*1155 ANTENNA__408__A1
*1156 ANTENNA__408__A2
*1157 ANTENNA__409__A1
*1158 ANTENNA__410__I
*1159 ANTENNA__411__I
*1160 ANTENNA__412__I
*1161 ANTENNA__413__A1
*1162 ANTENNA__413__A2
*1163 ANTENNA__413__B1
*1164 ANTENNA__413__B2
*1165 ANTENNA__414__I
*1166 ANTENNA__415__I
*1167 ANTENNA__416__I
*1168 ANTENNA__417__A1
*1169 ANTENNA__417__A2
*1170 ANTENNA__417__A3
*1171 ANTENNA__417__A4
*1172 ANTENNA__418__A1
*1173 ANTENNA__418__B
*1174 ANTENNA__419__I
*1175 ANTENNA__420__I
*1176 ANTENNA__421__I
*1177 ANTENNA__422__A1
*1178 ANTENNA__422__A2
*1179 ANTENNA__423__I
*1180 ANTENNA__424__A1
*1181 ANTENNA__424__A2
*1182 ANTENNA__424__A3
*1183 ANTENNA__424__A4
*1184 ANTENNA__425__A1
*1185 ANTENNA__425__A2
*1186 ANTENNA__425__B1
*1187 ANTENNA__427__A1
*1188 ANTENNA__427__A2
*1189 ANTENNA__427__A3
*1190 ANTENNA__428__A1
*1191 ANTENNA__428__A2
*1192 ANTENNA__428__B
*1193 ANTENNA__429__A1
*1194 ANTENNA__429__B
*1195 ANTENNA__430__A1
*1196 ANTENNA__430__A2
*1197 ANTENNA__430__A3
*1198 ANTENNA__430__A4
*1199 ANTENNA__431__A1
*1200 ANTENNA__431__A2
*1201 ANTENNA__431__B1
*1202 ANTENNA__431__C
*1203 ANTENNA__433__A1
*1204 ANTENNA__433__A2
*1205 ANTENNA__434__A1
*1206 ANTENNA__434__A2
*1207 ANTENNA__434__A3
*1208 ANTENNA__434__A4
*1209 ANTENNA__435__A1
*1210 ANTENNA__435__A2
*1211 ANTENNA__435__B1
*1212 ANTENNA__436__A2
*1213 ANTENNA__437__I
*1214 ANTENNA__438__A1
*1215 ANTENNA__439__I
*1216 ANTENNA__440__A1
*1217 ANTENNA__440__A2
*1218 ANTENNA__440__A3
*1219 ANTENNA__440__A4
*1220 ANTENNA__441__A1
*1221 ANTENNA__441__A2
*1222 ANTENNA__443__A1
*1223 ANTENNA__443__A2
*1224 ANTENNA__444__A1
*1225 ANTENNA__444__A2
*1226 ANTENNA__444__B1
*1227 ANTENNA__444__C1
*1228 ANTENNA__444__C2
*1229 ANTENNA__446__I
*1230 ANTENNA__447__A1
*1231 ANTENNA__447__A2
*1232 ANTENNA__448__A1
*1233 ANTENNA__449__A1
*1234 ANTENNA__449__A2
*1235 ANTENNA__449__B1
*1236 ANTENNA__449__C1
*1237 ANTENNA__449__C2
*1238 ANTENNA__450__A1
*1239 ANTENNA__450__A2
*1240 ANTENNA__451__A1
*1241 ANTENNA__451__A2
*1242 ANTENNA__451__A3
*1243 ANTENNA__452__A1
*1244 ANTENNA__453__A1
*1245 ANTENNA__453__A2
*1246 ANTENNA__453__B1
*1247 ANTENNA__453__C1
*1248 ANTENNA__453__C2
*1249 ANTENNA__454__A1
*1250 ANTENNA__454__A2
*1251 ANTENNA__455__I
*1252 ANTENNA__457__I
*1253 ANTENNA__458__I
*1254 ANTENNA__459__A1
*1255 ANTENNA__459__A2
*1256 ANTENNA__459__A3
*1257 ANTENNA__459__A4
*1258 ANTENNA__460__A1
*1259 ANTENNA__460__A2
*1260 ANTENNA__461__A1
*1261 ANTENNA__461__A2
*1262 ANTENNA__461__B1
*1263 ANTENNA__461__C1
*1264 ANTENNA__461__C2
*1265 ANTENNA__462__A1
*1266 ANTENNA__462__A2
*1267 ANTENNA__463__A1
*1268 ANTENNA__464__A1
*1269 ANTENNA__464__A2
*1270 ANTENNA__465__A1
*1271 ANTENNA__465__A2
*1272 ANTENNA__466__I
*1273 ANTENNA__467__A1
*1274 ANTENNA__467__A2
*1275 ANTENNA__468__A1
*1276 ANTENNA__469__A1
*1277 ANTENNA__469__A2
*1278 ANTENNA__471__A1
*1279 ANTENNA__471__A2
*1280 ANTENNA__471__B1
*1281 ANTENNA__471__C2
*1282 ANTENNA__472__A1
*1283 ANTENNA__472__A2
*1284 ANTENNA__473__A1
*1285 ANTENNA__473__B
*1286 ANTENNA__474__A1
*1287 ANTENNA__474__A2
*1288 ANTENNA__475__A1
*1289 ANTENNA__475__A2
*1290 ANTENNA__475__A3
*1291 ANTENNA__476__A2
*1292 ANTENNA__477__A1
*1293 ANTENNA__478__A1
*1294 ANTENNA__478__A2
*1295 ANTENNA__478__B2
*1296 ANTENNA__480__B
*1297 ANTENNA__481__I
*1298 ANTENNA__482__A1
*1299 ANTENNA__482__A2
*1300 ANTENNA__483__A1
*1301 ANTENNA__483__A2
*1302 ANTENNA__483__B1
*1303 ANTENNA__483__C2
*1304 ANTENNA__484__A1
*1305 ANTENNA__485__I
*1306 ANTENNA__486__A1
*1307 ANTENNA__486__A2
*1308 ANTENNA__486__A3
*1309 ANTENNA__486__A4
*1310 ANTENNA__487__A1
*1311 ANTENNA__487__A2
*1312 ANTENNA__489__A1
*1313 ANTENNA__489__A2
*1314 ANTENNA__489__B1
*1315 ANTENNA__489__C2
*1316 ANTENNA__490__A1
*1317 ANTENNA__491__A1
*1318 ANTENNA__491__A2
*1319 ANTENNA__492__A1
*1320 ANTENNA__493__A1
*1321 ANTENNA__493__A2
*1322 ANTENNA__493__B1
*1323 ANTENNA__493__C2
*1324 ANTENNA__494__A1
*1325 ANTENNA__494__A2
*1326 ANTENNA__495__A1
*1327 ANTENNA__496__A1
*1328 ANTENNA__497__A1
*1329 ANTENNA__497__A2
*1330 ANTENNA__497__B1
*1331 ANTENNA__497__C2
*1332 ANTENNA__498__A1
*1333 ANTENNA__499__I
*1334 ANTENNA__500__I
*1335 ANTENNA__501__A1
*1336 ANTENNA__501__A2
*1337 ANTENNA__501__A3
*1338 ANTENNA__501__A4
*1339 ANTENNA__502__A1
*1340 ANTENNA__503__A1
*1341 ANTENNA__503__A2
*1342 ANTENNA__503__B2
*1343 ANTENNA__505__A1
*1344 ANTENNA__506__A1
*1345 ANTENNA__506__C
*1346 ANTENNA__507__A1
*1347 ANTENNA__508__I
*1348 ANTENNA__509__A1
*1349 ANTENNA__510__A1
*1350 ANTENNA__510__A2
*1351 ANTENNA__510__B1
*1352 ANTENNA__510__C2
*1353 ANTENNA__511__A1
*1354 ANTENNA__512__A1
*1355 ANTENNA__513__A1
*1356 ANTENNA__513__A2
*1357 ANTENNA__514__A1
*1358 ANTENNA__514__A2
*1359 ANTENNA__515__A1
*1360 ANTENNA__515__A2
*1361 ANTENNA__516__I
*1362 ANTENNA__517__A1
*1363 ANTENNA__518__A1
*1364 ANTENNA__519__A1
*1365 ANTENNA__519__A2
*1366 ANTENNA__521__A1
*1367 ANTENNA__521__A2
*1368 ANTENNA__521__C2
*1369 ANTENNA__522__A1
*1370 ANTENNA__523__I
*1371 ANTENNA__524__A1
*1372 ANTENNA__524__B
*1373 ANTENNA__525__A1
*1374 ANTENNA__525__A2
*1375 ANTENNA__526__A1
*1376 ANTENNA__526__A2
*1377 ANTENNA__527__I
*1378 ANTENNA__529__A1
*1379 ANTENNA__529__A2
*1380 ANTENNA__529__B2
*1381 ANTENNA__530__A1
*1382 ANTENNA__532__I
*1383 ANTENNA__533__A1
*1384 ANTENNA__535__A1
*1385 ANTENNA__535__A2
*1386 ANTENNA__535__C1
*1387 ANTENNA__535__C2
*1388 ANTENNA__536__A1
*1389 ANTENNA__537__A1
*1390 ANTENNA__538__A1
*1391 ANTENNA__540__A1
*1392 ANTENNA__540__A2
*1393 ANTENNA__540__B2
*1394 ANTENNA__541__A1
*1395 ANTENNA__543__A1
*1396 ANTENNA__543__A2
*1397 ANTENNA__543__C1
*1398 ANTENNA__543__C2
*1399 ANTENNA__544__A1
*1400 ANTENNA__546__A2
*1401 ANTENNA__547__A1
*1402 ANTENNA__547__A3
*1403 ANTENNA__548__A1
*1404 ANTENNA__548__B
*1405 ANTENNA__549__A1
*1406 ANTENNA__549__A2
*1407 ANTENNA__549__B2
*1408 ANTENNA__550__B
*1409 ANTENNA__551__I
*1410 ANTENNA__552__A1
*1411 ANTENNA__552__A2
*1412 ANTENNA__553__A1
*1413 ANTENNA__553__A2
*1414 ANTENNA__553__B1
*1415 ANTENNA__553__C1
*1416 ANTENNA__553__C2
*1417 ANTENNA__554__A1
*1418 ANTENNA__556__A1
*1419 ANTENNA__557__A1
*1420 ANTENNA__557__A2
*1421 ANTENNA__559__A1
*1422 ANTENNA__559__A2
*1423 ANTENNA__559__B1
*1424 ANTENNA__559__C1
*1425 ANTENNA__559__C2
*1426 ANTENNA__560__A1
*1427 ANTENNA__561__A1
*1428 ANTENNA__561__A2
*1429 ANTENNA__562__A1
*1430 ANTENNA__562__A2
*1431 ANTENNA__563__A1
*1432 ANTENNA__564__I
*1433 ANTENNA__567__A1
*1434 ANTENNA__567__A2
*1435 ANTENNA__568__I
*1436 ANTENNA__569__A1
*1437 ANTENNA__569__A2
*1438 ANTENNA__569__C2
*1439 ANTENNA__570__A1
*1440 ANTENNA__571__A1
*1441 ANTENNA__572__I
*1442 ANTENNA__573__I
*1443 ANTENNA__575__I
*1444 ANTENNA__577__A2
*1445 ANTENNA__578__A1
*1446 ANTENNA__578__A2
*1447 ANTENNA__578__A3
*1448 ANTENNA__580__A1
*1449 ANTENNA__581__A1
*1450 ANTENNA__581__A2
*1451 ANTENNA__581__B1
*1452 ANTENNA__581__B2
*1453 ANTENNA__582__A1
*1454 ANTENNA__583__I
*1455 ANTENNA__584__A1
*1456 ANTENNA__585__A1
*1457 ANTENNA__585__A2
*1458 ANTENNA__585__C2
*1459 ANTENNA__586__A1
*1460 ANTENNA__587__I
*1461 ANTENNA__588__A1
*1462 ANTENNA__588__A2
*1463 ANTENNA__589__A1
*1464 ANTENNA__589__B
*1465 ANTENNA__592__A1
*1466 ANTENNA__592__A2
*1467 ANTENNA__592__A3
*1468 ANTENNA__593__A1
*1469 ANTENNA__593__A2
*1470 ANTENNA__593__C
*1471 ANTENNA__594__A1
*1472 ANTENNA__595__A1
*1473 ANTENNA__597__A1
*1474 ANTENNA__597__B1
*1475 ANTENNA__597__C2
*1476 ANTENNA__598__A1
*1477 ANTENNA__599__A1
*1478 ANTENNA__599__A2
*1479 ANTENNA__600__A2
*1480 ANTENNA__601__A1
*1481 ANTENNA__601__A2
*1482 ANTENNA__601__B1
*1483 ANTENNA__601__C2
*1484 ANTENNA__602__A1
*1485 ANTENNA__603__A2
*1486 ANTENNA__603__A3
*1487 ANTENNA__605__A1
*1488 ANTENNA__605__A2
*1489 ANTENNA__606__I
*1490 ANTENNA__607__A1
*1491 ANTENNA__607__B
*1492 ANTENNA__609__A1
*1493 ANTENNA__609__B1
*1494 ANTENNA__609__B2
*1495 ANTENNA__610__B
*1496 ANTENNA__611__A2
*1497 ANTENNA__611__A3
*1498 ANTENNA__611__A4
*1499 ANTENNA__612__I
*1500 ANTENNA__613__A1
*1501 ANTENNA__613__A2
*1502 ANTENNA__613__B
*1503 ANTENNA__615__A1
*1504 ANTENNA__616__A1
*1505 ANTENNA__616__B1
*1506 ANTENNA__616__B2
*1507 ANTENNA__617__B
*1508 ANTENNA__618__I
*1509 ANTENNA__619__A1
*1510 ANTENNA__619__A2
*1511 ANTENNA__620__A1
*1512 ANTENNA__621__I
*1513 ANTENNA__622__I
*1514 ANTENNA__623__I1
*1515 ANTENNA__623__S
*1516 ANTENNA__625__I1
*1517 ANTENNA__625__S
*1518 ANTENNA__627__I1
*1519 ANTENNA__627__S
*1520 ANTENNA__629__I1
*1521 ANTENNA__629__S
*1522 ANTENNA__631__I
*1523 ANTENNA__632__I1
*1524 ANTENNA__632__S
*1525 ANTENNA__634__I0
*1526 ANTENNA__634__I1
*1527 ANTENNA__634__S
*1528 ANTENNA__636__A1
*1529 ANTENNA__636__A2
*1530 ANTENNA__637__A1
*1531 ANTENNA__638__I0
*1532 ANTENNA__638__I1
*1533 ANTENNA__638__S
*1534 ANTENNA__640__I0
*1535 ANTENNA__640__I1
*1536 ANTENNA__640__S
*1537 ANTENNA__642__A1
*1538 ANTENNA__642__A2
*1539 ANTENNA__643__A1
*1540 ANTENNA__644__I
*1541 ANTENNA__645__I0
*1542 ANTENNA__645__I1
*1543 ANTENNA__645__S
*1544 ANTENNA__647__I0
*1545 ANTENNA__647__I1
*1546 ANTENNA__647__S
*1547 ANTENNA__649__I0
*1548 ANTENNA__649__I1
*1549 ANTENNA__649__S
*1550 ANTENNA__651__I
*1551 ANTENNA__652__A1
*1552 ANTENNA__652__A2
*1553 ANTENNA__653__A1
*1554 ANTENNA__654__I
*1555 ANTENNA__655__A1
*1556 ANTENNA__655__A2
*1557 ANTENNA__656__A1
*1558 ANTENNA__657__I0
*1559 ANTENNA__657__I1
*1560 ANTENNA__657__S
*1561 ANTENNA__659__I
*1562 ANTENNA__660__I0
*1563 ANTENNA__660__I1
*1564 ANTENNA__660__S
*1565 ANTENNA__662__I0
*1566 ANTENNA__662__I1
*1567 ANTENNA__662__S
*1568 ANTENNA__664__I0
*1569 ANTENNA__664__S
*1570 ANTENNA__666__I0
*1571 ANTENNA__666__S
*1572 ANTENNA__668__I
*1573 ANTENNA__669__I0
*1574 ANTENNA__669__I1
*1575 ANTENNA__669__S
*1576 ANTENNA__671__A2
*1577 ANTENNA__672__A1
*1578 ANTENNA__673__A2
*1579 ANTENNA__674__A1
*1580 ANTENNA__675__I0
*1581 ANTENNA__675__S
*1582 ANTENNA__677__I
*1583 ANTENNA__678__A2
*1584 ANTENNA__679__A1
*1585 ANTENNA__679__A2
*1586 ANTENNA__680__I0
*1587 ANTENNA__680__I1
*1588 ANTENNA__680__S
*1589 ANTENNA__682__I0
*1590 ANTENNA__682__I1
*1591 ANTENNA__682__S
*1592 ANTENNA__684__I0
*1593 ANTENNA__684__S
*1594 ANTENNA__686__A1
*1595 ANTENNA__686__A2
*1596 ANTENNA__687__A1
*1597 ANTENNA__687__A2
*1598 ANTENNA__688__A1
*1599 ANTENNA__688__A2
*1600 ANTENNA__689__A1
*1601 ANTENNA__689__A2
*1602 ANTENNA__690__A1
*1603 ANTENNA__690__A2
*1604 ANTENNA__691__A1
*1605 ANTENNA__691__A2
*1606 ANTENNA__692__CLK
*1607 ANTENNA__693__CLK
*1608 ANTENNA__694__CLK
*1609 ANTENNA__695__CLK
*1610 ANTENNA__696__CLK
*1611 ANTENNA__697__CLK
*1612 ANTENNA__698__CLK
*1613 ANTENNA__699__CLK
*1614 ANTENNA__700__CLK
*1615 ANTENNA__701__CLK
*1616 ANTENNA__702__CLK
*1617 ANTENNA__703__CLK
*1618 ANTENNA__704__CLK
*1619 ANTENNA__705__CLK
*1620 ANTENNA__706__CLK
*1621 ANTENNA__707__CLK
*1622 ANTENNA__708__CLK
*1623 ANTENNA__709__CLK
*1624 ANTENNA__710__CLK
*1625 ANTENNA__711__CLK
*1626 ANTENNA__712__CLK
*1627 ANTENNA__713__CLK
*1628 ANTENNA__714__CLK
*1629 ANTENNA__715__CLK
*1630 ANTENNA__716__CLK
*1631 ANTENNA__717__CLK
*1632 ANTENNA__718__CLK
*1633 ANTENNA__719__CLK
*1634 ANTENNA__720__CLK
*1635 ANTENNA__721__CLK
*1636 ANTENNA__722__CLK
*1637 ANTENNA__723__CLK
*1638 ANTENNA__724__CLK
*1639 ANTENNA__725__CLK
*1640 ANTENNA__726__CLK
*1641 ANTENNA__727__CLK
*1642 ANTENNA__728__CLK
*1643 ANTENNA__729__CLK
*1644 ANTENNA__730__CLK
*1645 ANTENNA__731__CLK
*1646 ANTENNA__732__CLK
*1647 ANTENNA__733__CLK
*1648 ANTENNA__734__CLK
*1649 ANTENNA__735__CLK
*1650 ANTENNA__736__CLK
*1651 ANTENNA__737__CLK
*1652 ANTENNA__738__CLK
*1653 ANTENNA__739__CLK
*1654 ANTENNA__740__CLK
*1655 ANTENNA__741__CLK
*1656 ANTENNA__742__CLK
*1657 ANTENNA__743__CLK
*1658 ANTENNA__744__CLK
*1659 ANTENNA__745__CLK
*1660 ANTENNA__746__CLK
*1661 ANTENNA__747__CLK
*1662 ANTENNA__748__CLK
*1663 ANTENNA__749__CLK
*1664 ANTENNA__750__CLK
*1665 ANTENNA__751__CLK
*1666 ANTENNA__752__CLK
*1667 ANTENNA__753__CLK
*1668 ANTENNA__754__CLK
*1669 ANTENNA__755__CLK
*1670 ANTENNA__756__CLK
*1671 ANTENNA__799__I
*1672 ANTENNA__800__I
*1673 ANTENNA__801__I
*1674 ANTENNA__802__I
*1675 ANTENNA__803__I
*1676 ANTENNA__804__I
*1677 ANTENNA__805__I
*1678 ANTENNA__806__I
*1679 ANTENNA__807__I
*1680 ANTENNA__808__I
*1681 ANTENNA__809__I
*1682 ANTENNA__810__I
*1683 ANTENNA__811__I
*1684 ANTENNA__812__I
*1685 ANTENNA__813__I
*1686 ANTENNA__814__I
*1687 ANTENNA__815__I
*1688 ANTENNA__816__I
*1689 ANTENNA__817__I
*1690 ANTENNA__818__I
*1691 ANTENNA__819__I
*1692 ANTENNA__820__I
*1693 ANTENNA__821__I
*1694 ANTENNA__822__I
*1695 ANTENNA__823__I
*1696 ANTENNA__824__I
*1697 ANTENNA__825__I
*1698 ANTENNA__826__I
*1699 ANTENNA__827__I
*1700 ANTENNA__828__I
*1701 ANTENNA__829__I
*1702 ANTENNA__830__I
*1703 ANTENNA__831__I
*1704 ANTENNA__832__I
*1705 ANTENNA__833__I
*1706 ANTENNA__834__I
*1707 ANTENNA__835__I
*1708 ANTENNA__836__I
*1709 ANTENNA__837__I
*1710 ANTENNA__838__I
*1711 ANTENNA__839__I
*1712 ANTENNA__840__I
*1713 ANTENNA__841__I
*1714 ANTENNA__842__I
*1715 ANTENNA__843__I
*1716 ANTENNA__845__I
*1717 ANTENNA__846__I
*1718 ANTENNA__849__I
*1719 ANTENNA__850__I
*1720 ANTENNA__851__I
*1721 ANTENNA__853__I
*1722 ANTENNA__854__I
*1723 ANTENNA__857__I
*1724 ANTENNA__858__I
*1725 ANTENNA__861__I
*1726 ANTENNA__862__I
*1727 ANTENNA__863__I
*1728 ANTENNA__866__I
*1729 ANTENNA__867__I
*1730 ANTENNA_clkbuf_0_wb_clk_i_I
*1731 ANTENNA_clkbuf_3_0__f_wb_clk_i_I