*SPEF "ieee 1481-1999"
*DESIGN "adder"
*DATE "11:11:11 Fri 11 11, 1111"
*VENDOR "OpenRCX"
*PROGRAM "Parallel Extraction"
*VERSION "1.0"
*DESIGN_FLOW "NAME_SCOPE LOCAL" "PIN_CAP NONE"
*DIVIDER /
*DELIMITER :
*BUS_DELIMITER []
*T_UNIT 1 NS
*C_UNIT 1 PF
*R_UNIT 1 OHM
*L_UNIT 1 HENRY

*NAME_MAP
*1 a_in[0]
*2 a_in[1]
*3 a_in[2]
*4 a_in[3]
*5 a_in[4]
*6 a_in[5]
*7 a_in[6]
*8 a_in[7]
*9 b_in[0]
*10 b_in[1]
*11 b_in[2]
*12 b_in[3]
*13 b_in[4]
*14 b_in[5]
*15 b_in[6]
*16 b_in[7]
*17 sum[0]
*18 sum[1]
*19 sum[2]
*20 sum[3]
*21 sum[4]
*22 sum[5]
*23 sum[6]
*24 sum[7]
*27 _00_
*28 _01_
*29 _02_
*30 _03_
*31 _04_
*32 _05_
*33 _06_
*34 _07_
*35 _08_
*36 _09_
*37 _10_
*38 _11_
*39 _12_
*40 _13_
*41 _14_
*42 _15_
*43 _16_
*44 _17_
*45 _18_
*46 _19_
*47 _20_
*48 _21_
*49 _22_
*50 _23_
*51 _24_
*52 _25_
*53 _26_
*54 _27_
*55 _28_
*56 _29_
*57 _30_
*58 _31_
*59 _32_
*60 _33_
*61 _34_
*62 _35_
*63 _36_
*64 _37_
*65 _38_
*66 _39_
*67 _40_
*68 net1
*69 net10
*70 net11
*71 net12
*72 net13
*73 net14
*74 net15
*75 net16
*76 net17
*77 net18
*78 net19
*79 net2
*80 net20
*81 net21
*82 net22
*83 net23
*84 net24
*85 net3
*86 net4
*87 net5
*88 net6
*89 net7
*90 net8
*91 net9
*92 FILLER_0_0
*93 FILLER_0_1000
*94 FILLER_0_1016
*95 FILLER_0_1032
*96 FILLER_0_1048
*97 FILLER_0_1064
*98 FILLER_0_1080
*99 FILLER_0_1096
*100 FILLER_0_1112
*101 FILLER_0_112
*102 FILLER_0_1128
*103 FILLER_0_1144
*104 FILLER_0_1160
*105 FILLER_0_1176
*106 FILLER_0_1192
*107 FILLER_0_1208
*108 FILLER_0_1224
*109 FILLER_0_1240
*110 FILLER_0_1256
*111 FILLER_0_1272
*112 FILLER_0_128
*113 FILLER_0_1288
*114 FILLER_0_1304
*115 FILLER_0_1320
*116 FILLER_0_1336
*117 FILLER_0_1352
*118 FILLER_0_1368
*119 FILLER_0_1384
*120 FILLER_0_1400
*121 FILLER_0_1416
*122 FILLER_0_1432
*123 FILLER_0_144
*124 FILLER_0_1448
*125 FILLER_0_1464
*126 FILLER_0_1480
*127 FILLER_0_1496
*128 FILLER_0_1512
*129 FILLER_0_1528
*130 FILLER_0_1544
*131 FILLER_0_1560
*132 FILLER_0_1576
*133 FILLER_0_1592
*134 FILLER_0_16
*135 FILLER_0_160
*136 FILLER_0_1608
*137 FILLER_0_1624
*138 FILLER_0_1640
*139 FILLER_0_1656
*140 FILLER_0_1672
*141 FILLER_0_1720
*142 FILLER_0_1736
*143 FILLER_0_1752
*144 FILLER_0_176
*145 FILLER_0_1768
*146 FILLER_0_1784
*147 FILLER_0_1800
*148 FILLER_0_1816
*149 FILLER_0_1832
*150 FILLER_0_1848
*151 FILLER_0_1864
*152 FILLER_0_1880
*153 FILLER_0_1896
*154 FILLER_0_1912
*155 FILLER_0_192
*156 FILLER_0_1928
*157 FILLER_0_1944
*158 FILLER_0_1960
*159 FILLER_0_1976
*160 FILLER_0_1992
*161 FILLER_0_2008
*162 FILLER_0_2024
*163 FILLER_0_2040
*164 FILLER_0_2056
*165 FILLER_0_2072
*166 FILLER_0_208
*167 FILLER_0_2088
*168 FILLER_0_2104
*169 FILLER_0_2120
*170 FILLER_0_2136
*171 FILLER_0_2152
*172 FILLER_0_2168
*173 FILLER_0_2184
*174 FILLER_0_2200
*175 FILLER_0_2216
*176 FILLER_0_2232
*177 FILLER_0_224
*178 FILLER_0_2248
*179 FILLER_0_2264
*180 FILLER_0_2280
*181 FILLER_0_2296
*182 FILLER_0_2312
*183 FILLER_0_2328
*184 FILLER_0_2344
*185 FILLER_0_2360
*186 FILLER_0_2376
*187 FILLER_0_2392
*188 FILLER_0_240
*189 FILLER_0_2408
*190 FILLER_0_2424
*191 FILLER_0_2440
*192 FILLER_0_2456
*193 FILLER_0_2472
*194 FILLER_0_2488
*195 FILLER_0_2504
*196 FILLER_0_2520
*197 FILLER_0_2536
*198 FILLER_0_2552
*199 FILLER_0_256
*200 FILLER_0_2568
*201 FILLER_0_2584
*202 FILLER_0_2600
*203 FILLER_0_2616
*204 FILLER_0_2632
*205 FILLER_0_2648
*206 FILLER_0_2664
*207 FILLER_0_2680
*208 FILLER_0_2696
*209 FILLER_0_2712
*210 FILLER_0_272
*211 FILLER_0_2728
*212 FILLER_0_2744
*213 FILLER_0_2760
*214 FILLER_0_2776
*215 FILLER_0_2792
*216 FILLER_0_2840
*217 FILLER_0_2856
*218 FILLER_0_2872
*219 FILLER_0_288
*220 FILLER_0_2888
*221 FILLER_0_2904
*222 FILLER_0_2920
*223 FILLER_0_2936
*224 FILLER_0_2952
*225 FILLER_0_2968
*226 FILLER_0_2984
*227 FILLER_0_3000
*228 FILLER_0_3016
*229 FILLER_0_3032
*230 FILLER_0_304
*231 FILLER_0_3048
*232 FILLER_0_3064
*233 FILLER_0_3080
*234 FILLER_0_3096
*235 FILLER_0_3112
*236 FILLER_0_3128
*237 FILLER_0_3144
*238 FILLER_0_3160
*239 FILLER_0_3176
*240 FILLER_0_3192
*241 FILLER_0_32
*242 FILLER_0_320
*243 FILLER_0_3208
*244 FILLER_0_3224
*245 FILLER_0_3240
*246 FILLER_0_3256
*247 FILLER_0_3272
*248 FILLER_0_3288
*249 FILLER_0_3304
*250 FILLER_0_3320
*251 FILLER_0_3336
*252 FILLER_0_3352
*253 FILLER_0_336
*254 FILLER_0_3368
*255 FILLER_0_3384
*256 FILLER_0_3400
*257 FILLER_0_3416
*258 FILLER_0_3432
*259 FILLER_0_3448
*260 FILLER_0_3464
*261 FILLER_0_3480
*262 FILLER_0_3496
*263 FILLER_0_3512
*264 FILLER_0_352
*265 FILLER_0_3528
*266 FILLER_0_3544
*267 FILLER_0_3560
*268 FILLER_0_3576
*269 FILLER_0_3592
*270 FILLER_0_3608
*271 FILLER_0_3624
*272 FILLER_0_3640
*273 FILLER_0_3656
*274 FILLER_0_3672
*275 FILLER_0_368
*276 FILLER_0_3688
*277 FILLER_0_3704
*278 FILLER_0_3720
*279 FILLER_0_3736
*280 FILLER_0_3752
*281 FILLER_0_3768
*282 FILLER_0_3784
*283 FILLER_0_3800
*284 FILLER_0_3816
*285 FILLER_0_3832
*286 FILLER_0_384
*287 FILLER_0_3848
*288 FILLER_0_3864
*289 FILLER_0_3880
*290 FILLER_0_3896
*291 FILLER_0_3912
*292 FILLER_0_3960
*293 FILLER_0_3976
*294 FILLER_0_3992
*295 FILLER_0_400
*296 FILLER_0_4008
*297 FILLER_0_4024
*298 FILLER_0_4040
*299 FILLER_0_4056
*300 FILLER_0_4072
*301 FILLER_0_4088
*302 FILLER_0_4104
*303 FILLER_0_4120
*304 FILLER_0_4136
*305 FILLER_0_4152
*306 FILLER_0_416
*307 FILLER_0_4168
*308 FILLER_0_4184
*309 FILLER_0_4200
*310 FILLER_0_4216
*311 FILLER_0_4232
*312 FILLER_0_4248
*313 FILLER_0_4264
*314 FILLER_0_4280
*315 FILLER_0_4296
*316 FILLER_0_4312
*317 FILLER_0_432
*318 FILLER_0_4328
*319 FILLER_0_4344
*320 FILLER_0_4360
*321 FILLER_0_4376
*322 FILLER_0_4392
*323 FILLER_0_4408
*324 FILLER_0_4424
*325 FILLER_0_4440
*326 FILLER_0_4456
*327 FILLER_0_4472
*328 FILLER_0_448
*329 FILLER_0_4488
*330 FILLER_0_4504
*331 FILLER_0_4520
*332 FILLER_0_4536
*333 FILLER_0_4552
*334 FILLER_0_4568
*335 FILLER_0_4584
*336 FILLER_0_4600
*337 FILLER_0_4616
*338 FILLER_0_4632
*339 FILLER_0_464
*340 FILLER_0_4648
*341 FILLER_0_4664
*342 FILLER_0_4680
*343 FILLER_0_4696
*344 FILLER_0_4712
*345 FILLER_0_4728
*346 FILLER_0_4744
*347 FILLER_0_4760
*348 FILLER_0_4776
*349 FILLER_0_4792
*350 FILLER_0_48
*351 FILLER_0_480
*352 FILLER_0_4808
*353 FILLER_0_4824
*354 FILLER_0_4840
*355 FILLER_0_4856
*356 FILLER_0_4872
*357 FILLER_0_4888
*358 FILLER_0_4904
*359 FILLER_0_4920
*360 FILLER_0_4936
*361 FILLER_0_4952
*362 FILLER_0_496
*363 FILLER_0_4968
*364 FILLER_0_4984
*365 FILLER_0_5000
*366 FILLER_0_5016
*367 FILLER_0_5032
*368 FILLER_0_5080
*369 FILLER_0_5096
*370 FILLER_0_5112
*371 FILLER_0_512
*372 FILLER_0_5128
*373 FILLER_0_5144
*374 FILLER_0_5160
*375 FILLER_0_5176
*376 FILLER_0_5192
*377 FILLER_0_5208
*378 FILLER_0_5224
*379 FILLER_0_5240
*380 FILLER_0_5256
*381 FILLER_0_5272
*382 FILLER_0_528
*383 FILLER_0_5288
*384 FILLER_0_5304
*385 FILLER_0_5320
*386 FILLER_0_5336
*387 FILLER_0_5352
*388 FILLER_0_5368
*389 FILLER_0_5384
*390 FILLER_0_5400
*391 FILLER_0_5416
*392 FILLER_0_5432
*393 FILLER_0_544
*394 FILLER_0_5448
*395 FILLER_0_5464
*396 FILLER_0_5480
*397 FILLER_0_5496
*398 FILLER_0_5512
*399 FILLER_0_5528
*400 FILLER_0_5544
*401 FILLER_0_5560
*402 FILLER_0_5576
*403 FILLER_0_5592
*404 FILLER_0_560
*405 FILLER_0_5608
*406 FILLER_0_5624
*407 FILLER_0_5640
*408 FILLER_0_5656
*409 FILLER_0_5672
*410 FILLER_0_5688
*411 FILLER_0_5704
*412 FILLER_0_5720
*413 FILLER_0_5736
*414 FILLER_0_5752
*415 FILLER_0_5768
*416 FILLER_0_5784
*417 FILLER_0_5800
*418 FILLER_0_5816
*419 FILLER_0_5832
*420 FILLER_0_5848
*421 FILLER_0_5864
*422 FILLER_0_5880
*423 FILLER_0_5896
*424 FILLER_0_5912
*425 FILLER_0_5928
*426 FILLER_0_5944
*427 FILLER_0_5960
*428 FILLER_0_5976
*429 FILLER_0_5992
*430 FILLER_0_600
*431 FILLER_0_6008
*432 FILLER_0_6024
*433 FILLER_0_6040
*434 FILLER_0_6056
*435 FILLER_0_6072
*436 FILLER_0_6088
*437 FILLER_0_6104
*438 FILLER_0_6120
*439 FILLER_0_6136
*440 FILLER_0_6152
*441 FILLER_0_616
*442 FILLER_0_6200
*443 FILLER_0_6216
*444 FILLER_0_6232
*445 FILLER_0_6248
*446 FILLER_0_6264
*447 FILLER_0_6280
*448 FILLER_0_6296
*449 FILLER_0_6312
*450 FILLER_0_632
*451 FILLER_0_6328
*452 FILLER_0_6344
*453 FILLER_0_6360
*454 FILLER_0_6376
*455 FILLER_0_6392
*456 FILLER_0_64
*457 FILLER_0_6408
*458 FILLER_0_6424
*459 FILLER_0_6440
*460 FILLER_0_6456
*461 FILLER_0_6472
*462 FILLER_0_648
*463 FILLER_0_6488
*464 FILLER_0_6504
*465 FILLER_0_6520
*466 FILLER_0_6536
*467 FILLER_0_6552
*468 FILLER_0_6568
*469 FILLER_0_6584
*470 FILLER_0_6600
*471 FILLER_0_6616
*472 FILLER_0_6632
*473 FILLER_0_664
*474 FILLER_0_6648
*475 FILLER_0_6664
*476 FILLER_0_6680
*477 FILLER_0_6696
*478 FILLER_0_6712
*479 FILLER_0_6728
*480 FILLER_0_6744
*481 FILLER_0_6760
*482 FILLER_0_6776
*483 FILLER_0_6792
*484 FILLER_0_680
*485 FILLER_0_6808
*486 FILLER_0_6824
*487 FILLER_0_6840
*488 FILLER_0_6856
*489 FILLER_0_6872
*490 FILLER_0_6888
*491 FILLER_0_6904
*492 FILLER_0_6920
*493 FILLER_0_6936
*494 FILLER_0_6952
*495 FILLER_0_696
*496 FILLER_0_6968
*497 FILLER_0_6984
*498 FILLER_0_7000
*499 FILLER_0_7016
*500 FILLER_0_7032
*501 FILLER_0_7048
*502 FILLER_0_7064
*503 FILLER_0_7080
*504 FILLER_0_7096
*505 FILLER_0_7112
*506 FILLER_0_712
*507 FILLER_0_7128
*508 FILLER_0_7144
*509 FILLER_0_7160
*510 FILLER_0_7176
*511 FILLER_0_7192
*512 FILLER_0_7208
*513 FILLER_0_7224
*514 FILLER_0_7240
*515 FILLER_0_7256
*516 FILLER_0_7272
*517 FILLER_0_728
*518 FILLER_0_7320
*519 FILLER_0_7336
*520 FILLER_0_7352
*521 FILLER_0_7368
*522 FILLER_0_7384
*523 FILLER_0_7400
*524 FILLER_0_7416
*525 FILLER_0_7432
*526 FILLER_0_744
*527 FILLER_0_7448
*528 FILLER_0_7464
*529 FILLER_0_7480
*530 FILLER_0_7496
*531 FILLER_0_7512
*532 FILLER_0_7528
*533 FILLER_0_7544
*534 FILLER_0_7560
*535 FILLER_0_7576
*536 FILLER_0_7592
*537 FILLER_0_760
*538 FILLER_0_7608
*539 FILLER_0_7624
*540 FILLER_0_7640
*541 FILLER_0_7656
*542 FILLER_0_7672
*543 FILLER_0_7688
*544 FILLER_0_7704
*545 FILLER_0_7720
*546 FILLER_0_7736
*547 FILLER_0_7752
*548 FILLER_0_776
*549 FILLER_0_7768
*550 FILLER_0_7784
*551 FILLER_0_7800
*552 FILLER_0_7816
*553 FILLER_0_7832
*554 FILLER_0_7848
*555 FILLER_0_7864
*556 FILLER_0_7880
*557 FILLER_0_7896
*558 FILLER_0_7912
*559 FILLER_0_792
*560 FILLER_0_7928
*561 FILLER_0_7944
*562 FILLER_0_7960
*563 FILLER_0_7976
*564 FILLER_0_7992
*565 FILLER_0_80
*566 FILLER_0_8008
*567 FILLER_0_8024
*568 FILLER_0_8040
*569 FILLER_0_8056
*570 FILLER_0_8072
*571 FILLER_0_808
*572 FILLER_0_8088
*573 FILLER_0_8104
*574 FILLER_0_8120
*575 FILLER_0_8136
*576 FILLER_0_8152
*577 FILLER_0_8168
*578 FILLER_0_8184
*579 FILLER_0_8200
*580 FILLER_0_8216
*581 FILLER_0_8232
*582 FILLER_0_824
*583 FILLER_0_8248
*584 FILLER_0_8264
*585 FILLER_0_8280
*586 FILLER_0_8296
*587 FILLER_0_8312
*588 FILLER_0_8328
*589 FILLER_0_8344
*590 FILLER_0_8360
*591 FILLER_0_8376
*592 FILLER_0_8392
*593 FILLER_0_840
*594 FILLER_0_8440
*595 FILLER_0_8456
*596 FILLER_0_8472
*597 FILLER_0_8488
*598 FILLER_0_8504
*599 FILLER_0_8520
*600 FILLER_0_8536
*601 FILLER_0_8552
*602 FILLER_0_856
*603 FILLER_0_8568
*604 FILLER_0_8584
*605 FILLER_0_8600
*606 FILLER_0_8616
*607 FILLER_0_8632
*608 FILLER_0_8648
*609 FILLER_0_8664
*610 FILLER_0_8680
*611 FILLER_0_8696
*612 FILLER_0_8712
*613 FILLER_0_872
*614 FILLER_0_8728
*615 FILLER_0_8744
*616 FILLER_0_8760
*617 FILLER_0_8776
*618 FILLER_0_8792
*619 FILLER_0_8808
*620 FILLER_0_8824
*621 FILLER_0_8840
*622 FILLER_0_8856
*623 FILLER_0_8872
*624 FILLER_0_888
*625 FILLER_0_8888
*626 FILLER_0_8904
*627 FILLER_0_8920
*628 FILLER_0_8936
*629 FILLER_0_8952
*630 FILLER_0_8968
*631 FILLER_0_904
*632 FILLER_0_920
*633 FILLER_0_936
*634 FILLER_0_952
*635 FILLER_0_96
*636 FILLER_0_968
*637 FILLER_0_984
*638 FILLER_10_0
*639 FILLER_10_1008
*640 FILLER_10_1024
*641 FILLER_10_1040
*642 FILLER_10_1056
*643 FILLER_10_1072
*644 FILLER_10_1088
*645 FILLER_10_1104
*646 FILLER_10_112
*647 FILLER_10_1120
*648 FILLER_10_1136
*649 FILLER_10_1152
*650 FILLER_10_1168
*651 FILLER_10_1184
*652 FILLER_10_1200
*653 FILLER_10_1216
*654 FILLER_10_1232
*655 FILLER_10_1248
*656 FILLER_10_1264
*657 FILLER_10_128
*658 FILLER_10_1280
*659 FILLER_10_1296
*660 FILLER_10_1312
*661 FILLER_10_1328
*662 FILLER_10_1344
*663 FILLER_10_1360
*664 FILLER_10_1376
*665 FILLER_10_1392
*666 FILLER_10_1408
*667 FILLER_10_1424
*668 FILLER_10_144
*669 FILLER_10_1440
*670 FILLER_10_1456
*671 FILLER_10_1472
*672 FILLER_10_1488
*673 FILLER_10_1504
*674 FILLER_10_1520
*675 FILLER_10_1536
*676 FILLER_10_1552
*677 FILLER_10_1568
*678 FILLER_10_1584
*679 FILLER_10_16
*680 FILLER_10_160
*681 FILLER_10_1600
*682 FILLER_10_1616
*683 FILLER_10_1632
*684 FILLER_10_1648
*685 FILLER_10_1664
*686 FILLER_10_1680
*687 FILLER_10_1696
*688 FILLER_10_1712
*689 FILLER_10_1728
*690 FILLER_10_1744
*691 FILLER_10_176
*692 FILLER_10_1760
*693 FILLER_10_1776
*694 FILLER_10_1792
*695 FILLER_10_1808
*696 FILLER_10_1824
*697 FILLER_10_1840
*698 FILLER_10_1856
*699 FILLER_10_1872
*700 FILLER_10_1888
*701 FILLER_10_1904
*702 FILLER_10_192
*703 FILLER_10_1920
*704 FILLER_10_1936
*705 FILLER_10_1952
*706 FILLER_10_1968
*707 FILLER_10_1984
*708 FILLER_10_2000
*709 FILLER_10_2016
*710 FILLER_10_2032
*711 FILLER_10_2048
*712 FILLER_10_2064
*713 FILLER_10_208
*714 FILLER_10_2080
*715 FILLER_10_2096
*716 FILLER_10_2112
*717 FILLER_10_2128
*718 FILLER_10_2144
*719 FILLER_10_2160
*720 FILLER_10_2176
*721 FILLER_10_2192
*722 FILLER_10_2208
*723 FILLER_10_2224
*724 FILLER_10_224
*725 FILLER_10_2240
*726 FILLER_10_2256
*727 FILLER_10_2272
*728 FILLER_10_2288
*729 FILLER_10_2304
*730 FILLER_10_2320
*731 FILLER_10_2336
*732 FILLER_10_2352
*733 FILLER_10_2368
*734 FILLER_10_2384
*735 FILLER_10_240
*736 FILLER_10_2400
*737 FILLER_10_2416
*738 FILLER_10_2432
*739 FILLER_10_2448
*740 FILLER_10_2464
*741 FILLER_10_2480
*742 FILLER_10_2496
*743 FILLER_10_2512
*744 FILLER_10_2528
*745 FILLER_10_2544
*746 FILLER_10_256
*747 FILLER_10_2560
*748 FILLER_10_2576
*749 FILLER_10_2592
*750 FILLER_10_2608
*751 FILLER_10_2624
*752 FILLER_10_2640
*753 FILLER_10_2656
*754 FILLER_10_2672
*755 FILLER_10_2688
*756 FILLER_10_2704
*757 FILLER_10_272
*758 FILLER_10_2720
*759 FILLER_10_2736
*760 FILLER_10_2752
*761 FILLER_10_2768
*762 FILLER_10_2784
*763 FILLER_10_2800
*764 FILLER_10_2816
*765 FILLER_10_2832
*766 FILLER_10_2848
*767 FILLER_10_2864
*768 FILLER_10_288
*769 FILLER_10_2880
*770 FILLER_10_2896
*771 FILLER_10_2912
*772 FILLER_10_2928
*773 FILLER_10_2944
*774 FILLER_10_2960
*775 FILLER_10_2976
*776 FILLER_10_2992
*777 FILLER_10_3008
*778 FILLER_10_3024
*779 FILLER_10_304
*780 FILLER_10_3040
*781 FILLER_10_3056
*782 FILLER_10_3072
*783 FILLER_10_3088
*784 FILLER_10_3104
*785 FILLER_10_3120
*786 FILLER_10_3136
*787 FILLER_10_3152
*788 FILLER_10_3168
*789 FILLER_10_3184
*790 FILLER_10_32
*791 FILLER_10_320
*792 FILLER_10_3200
*793 FILLER_10_3216
*794 FILLER_10_3232
*795 FILLER_10_3248
*796 FILLER_10_3264
*797 FILLER_10_3280
*798 FILLER_10_3296
*799 FILLER_10_3312
*800 FILLER_10_3328
*801 FILLER_10_3344
*802 FILLER_10_336
*803 FILLER_10_3360
*804 FILLER_10_3376
*805 FILLER_10_3392
*806 FILLER_10_3408
*807 FILLER_10_3424
*808 FILLER_10_3440
*809 FILLER_10_3456
*810 FILLER_10_3472
*811 FILLER_10_3488
*812 FILLER_10_3504
*813 FILLER_10_352
*814 FILLER_10_3520
*815 FILLER_10_3536
*816 FILLER_10_3552
*817 FILLER_10_3568
*818 FILLER_10_3584
*819 FILLER_10_3600
*820 FILLER_10_3616
*821 FILLER_10_3632
*822 FILLER_10_3648
*823 FILLER_10_3664
*824 FILLER_10_368
*825 FILLER_10_3680
*826 FILLER_10_3696
*827 FILLER_10_3712
*828 FILLER_10_3728
*829 FILLER_10_3744
*830 FILLER_10_3760
*831 FILLER_10_3776
*832 FILLER_10_3792
*833 FILLER_10_3808
*834 FILLER_10_3824
*835 FILLER_10_384
*836 FILLER_10_3840
*837 FILLER_10_3856
*838 FILLER_10_3872
*839 FILLER_10_3888
*840 FILLER_10_3904
*841 FILLER_10_3920
*842 FILLER_10_3936
*843 FILLER_10_3952
*844 FILLER_10_3968
*845 FILLER_10_3984
*846 FILLER_10_400
*847 FILLER_10_4000
*848 FILLER_10_4016
*849 FILLER_10_4032
*850 FILLER_10_4048
*851 FILLER_10_4064
*852 FILLER_10_4080
*853 FILLER_10_4096
*854 FILLER_10_4112
*855 FILLER_10_4128
*856 FILLER_10_4144
*857 FILLER_10_416
*858 FILLER_10_4160
*859 FILLER_10_4176
*860 FILLER_10_4192
*861 FILLER_10_4208
*862 FILLER_10_4224
*863 FILLER_10_4240
*864 FILLER_10_4256
*865 FILLER_10_4272
*866 FILLER_10_4288
*867 FILLER_10_4304
*868 FILLER_10_432
*869 FILLER_10_4320
*870 FILLER_10_4336
*871 FILLER_10_4352
*872 FILLER_10_4368
*873 FILLER_10_4384
*874 FILLER_10_4400
*875 FILLER_10_4416
*876 FILLER_10_4432
*877 FILLER_10_4448
*878 FILLER_10_4464
*879 FILLER_10_448
*880 FILLER_10_4480
*881 FILLER_10_4496
*882 FILLER_10_4512
*883 FILLER_10_4528
*884 FILLER_10_4544
*885 FILLER_10_4560
*886 FILLER_10_4576
*887 FILLER_10_4592
*888 FILLER_10_4608
*889 FILLER_10_4624
*890 FILLER_10_464
*891 FILLER_10_4640
*892 FILLER_10_4656
*893 FILLER_10_4672
*894 FILLER_10_4688
*895 FILLER_10_4704
*896 FILLER_10_4720
*897 FILLER_10_4736
*898 FILLER_10_4752
*899 FILLER_10_4768
*900 FILLER_10_4784
*901 FILLER_10_48
*902 FILLER_10_480
*903 FILLER_10_4800
*904 FILLER_10_4816
*905 FILLER_10_4832
*906 FILLER_10_4848
*907 FILLER_10_4864
*908 FILLER_10_4880
*909 FILLER_10_4896
*910 FILLER_10_4912
*911 FILLER_10_4928
*912 FILLER_10_4944
*913 FILLER_10_496
*914 FILLER_10_4960
*915 FILLER_10_4976
*916 FILLER_10_4992
*917 FILLER_10_5008
*918 FILLER_10_5024
*919 FILLER_10_5040
*920 FILLER_10_5056
*921 FILLER_10_5072
*922 FILLER_10_5088
*923 FILLER_10_5104
*924 FILLER_10_512
*925 FILLER_10_5120
*926 FILLER_10_5136
*927 FILLER_10_5152
*928 FILLER_10_5168
*929 FILLER_10_5184
*930 FILLER_10_5200
*931 FILLER_10_5216
*932 FILLER_10_5232
*933 FILLER_10_5248
*934 FILLER_10_5264
*935 FILLER_10_528
*936 FILLER_10_5280
*937 FILLER_10_5296
*938 FILLER_10_5312
*939 FILLER_10_5328
*940 FILLER_10_5344
*941 FILLER_10_5360
*942 FILLER_10_5376
*943 FILLER_10_5392
*944 FILLER_10_5408
*945 FILLER_10_5424
*946 FILLER_10_544
*947 FILLER_10_5440
*948 FILLER_10_5456
*949 FILLER_10_5472
*950 FILLER_10_5488
*951 FILLER_10_5504
*952 FILLER_10_5520
*953 FILLER_10_5536
*954 FILLER_10_5552
*955 FILLER_10_5568
*956 FILLER_10_5584
*957 FILLER_10_560
*958 FILLER_10_5600
*959 FILLER_10_5616
*960 FILLER_10_5632
*961 FILLER_10_5648
*962 FILLER_10_5664
*963 FILLER_10_5680
*964 FILLER_10_5696
*965 FILLER_10_5712
*966 FILLER_10_5728
*967 FILLER_10_5744
*968 FILLER_10_576
*969 FILLER_10_5760
*970 FILLER_10_5776
*971 FILLER_10_5792
*972 FILLER_10_5808
*973 FILLER_10_5824
*974 FILLER_10_5840
*975 FILLER_10_5856
*976 FILLER_10_5872
*977 FILLER_10_5888
*978 FILLER_10_5904
*979 FILLER_10_592
*980 FILLER_10_5920
*981 FILLER_10_5936
*982 FILLER_10_5952
*983 FILLER_10_5968
*984 FILLER_10_5984
*985 FILLER_10_6000
*986 FILLER_10_6016
*987 FILLER_10_6032
*988 FILLER_10_6048
*989 FILLER_10_6064
*990 FILLER_10_608
*991 FILLER_10_6080
*992 FILLER_10_6096
*993 FILLER_10_6112
*994 FILLER_10_6128
*995 FILLER_10_6144
*996 FILLER_10_6160
*997 FILLER_10_6176
*998 FILLER_10_6192
*999 FILLER_10_6208
*1000 FILLER_10_6224
*1001 FILLER_10_624
*1002 FILLER_10_6240
*1003 FILLER_10_6256
*1004 FILLER_10_6272
*1005 FILLER_10_6288
*1006 FILLER_10_6304
*1007 FILLER_10_6320
*1008 FILLER_10_6336
*1009 FILLER_10_6352
*1010 FILLER_10_6368
*1011 FILLER_10_6384
*1012 FILLER_10_64
*1013 FILLER_10_640
*1014 FILLER_10_6400
*1015 FILLER_10_6416
*1016 FILLER_10_6432
*1017 FILLER_10_6448
*1018 FILLER_10_6464
*1019 FILLER_10_6480
*1020 FILLER_10_6496
*1021 FILLER_10_6512
*1022 FILLER_10_6528
*1023 FILLER_10_6544
*1024 FILLER_10_656
*1025 FILLER_10_6560
*1026 FILLER_10_6576
*1027 FILLER_10_6592
*1028 FILLER_10_6608
*1029 FILLER_10_6624
*1030 FILLER_10_6640
*1031 FILLER_10_6656
*1032 FILLER_10_6672
*1033 FILLER_10_6688
*1034 FILLER_10_6704
*1035 FILLER_10_672
*1036 FILLER_10_6720
*1037 FILLER_10_6736
*1038 FILLER_10_6752
*1039 FILLER_10_6768
*1040 FILLER_10_6784
*1041 FILLER_10_6800
*1042 FILLER_10_6816
*1043 FILLER_10_6832
*1044 FILLER_10_6848
*1045 FILLER_10_6864
*1046 FILLER_10_688
*1047 FILLER_10_6880
*1048 FILLER_10_6896
*1049 FILLER_10_6912
*1050 FILLER_10_6928
*1051 FILLER_10_6944
*1052 FILLER_10_6960
*1053 FILLER_10_6976
*1054 FILLER_10_6992
*1055 FILLER_10_7008
*1056 FILLER_10_7024
*1057 FILLER_10_704
*1058 FILLER_10_7040
*1059 FILLER_10_7056
*1060 FILLER_10_7072
*1061 FILLER_10_7088
*1062 FILLER_10_7104
*1063 FILLER_10_7120
*1064 FILLER_10_7136
*1065 FILLER_10_7152
*1066 FILLER_10_7168
*1067 FILLER_10_7184
*1068 FILLER_10_720
*1069 FILLER_10_7200
*1070 FILLER_10_7216
*1071 FILLER_10_7232
*1072 FILLER_10_7248
*1073 FILLER_10_7264
*1074 FILLER_10_7280
*1075 FILLER_10_7296
*1076 FILLER_10_7312
*1077 FILLER_10_7328
*1078 FILLER_10_7344
*1079 FILLER_10_736
*1080 FILLER_10_7360
*1081 FILLER_10_7376
*1082 FILLER_10_7392
*1083 FILLER_10_7408
*1084 FILLER_10_7424
*1085 FILLER_10_7440
*1086 FILLER_10_7456
*1087 FILLER_10_7472
*1088 FILLER_10_7488
*1089 FILLER_10_7504
*1090 FILLER_10_752
*1091 FILLER_10_7520
*1092 FILLER_10_7536
*1093 FILLER_10_7552
*1094 FILLER_10_7568
*1095 FILLER_10_7584
*1096 FILLER_10_7600
*1097 FILLER_10_7616
*1098 FILLER_10_7632
*1099 FILLER_10_7648
*1100 FILLER_10_7664
*1101 FILLER_10_768
*1102 FILLER_10_7680
*1103 FILLER_10_7696
*1104 FILLER_10_7712
*1105 FILLER_10_7728
*1106 FILLER_10_7744
*1107 FILLER_10_7760
*1108 FILLER_10_7776
*1109 FILLER_10_7792
*1110 FILLER_10_7808
*1111 FILLER_10_7824
*1112 FILLER_10_784
*1113 FILLER_10_7840
*1114 FILLER_10_7856
*1115 FILLER_10_7872
*1116 FILLER_10_7888
*1117 FILLER_10_7904
*1118 FILLER_10_7920
*1119 FILLER_10_7936
*1120 FILLER_10_7952
*1121 FILLER_10_7968
*1122 FILLER_10_7984
*1123 FILLER_10_80
*1124 FILLER_10_800
*1125 FILLER_10_8000
*1126 FILLER_10_8016
*1127 FILLER_10_8032
*1128 FILLER_10_8048
*1129 FILLER_10_8064
*1130 FILLER_10_8080
*1131 FILLER_10_8096
*1132 FILLER_10_8112
*1133 FILLER_10_8128
*1134 FILLER_10_8144
*1135 FILLER_10_816
*1136 FILLER_10_8160
*1137 FILLER_10_8176
*1138 FILLER_10_8192
*1139 FILLER_10_8208
*1140 FILLER_10_8224
*1141 FILLER_10_8240
*1142 FILLER_10_8256
*1143 FILLER_10_8272
*1144 FILLER_10_8288
*1145 FILLER_10_8304
*1146 FILLER_10_832
*1147 FILLER_10_8320
*1148 FILLER_10_8336
*1149 FILLER_10_8352
*1150 FILLER_10_8368
*1151 FILLER_10_8384
*1152 FILLER_10_8400
*1153 FILLER_10_8416
*1154 FILLER_10_8432
*1155 FILLER_10_8448
*1156 FILLER_10_8464
*1157 FILLER_10_848
*1158 FILLER_10_8480
*1159 FILLER_10_8496
*1160 FILLER_10_8512
*1161 FILLER_10_8528
*1162 FILLER_10_8544
*1163 FILLER_10_8560
*1164 FILLER_10_8576
*1165 FILLER_10_8592
*1166 FILLER_10_8608
*1167 FILLER_10_8624
*1168 FILLER_10_864
*1169 FILLER_10_8640
*1170 FILLER_10_8656
*1171 FILLER_10_8672
*1172 FILLER_10_8688
*1173 FILLER_10_8704
*1174 FILLER_10_8720
*1175 FILLER_10_8736
*1176 FILLER_10_8752
*1177 FILLER_10_8768
*1178 FILLER_10_8784
*1179 FILLER_10_880
*1180 FILLER_10_8800
*1181 FILLER_10_8816
*1182 FILLER_10_8832
*1183 FILLER_10_8848
*1184 FILLER_10_8864
*1185 FILLER_10_8880
*1186 FILLER_10_8896
*1187 FILLER_10_8912
*1188 FILLER_10_8928
*1189 FILLER_10_8944
*1190 FILLER_10_896
*1191 FILLER_10_8960
*1192 FILLER_10_912
*1193 FILLER_10_928
*1194 FILLER_10_944
*1195 FILLER_10_96
*1196 FILLER_10_960
*1197 FILLER_10_976
*1198 FILLER_10_992
*1199 FILLER_11_0
*1200 FILLER_11_1008
*1201 FILLER_11_1024
*1202 FILLER_11_1040
*1203 FILLER_11_1056
*1204 FILLER_11_1072
*1205 FILLER_11_1088
*1206 FILLER_11_1104
*1207 FILLER_11_112
*1208 FILLER_11_1120
*1209 FILLER_11_1136
*1210 FILLER_11_1152
*1211 FILLER_11_1168
*1212 FILLER_11_1184
*1213 FILLER_11_1200
*1214 FILLER_11_1216
*1215 FILLER_11_1232
*1216 FILLER_11_1248
*1217 FILLER_11_1264
*1218 FILLER_11_128
*1219 FILLER_11_1280
*1220 FILLER_11_1296
*1221 FILLER_11_1312
*1222 FILLER_11_1328
*1223 FILLER_11_1344
*1224 FILLER_11_1360
*1225 FILLER_11_1376
*1226 FILLER_11_1392
*1227 FILLER_11_1408
*1228 FILLER_11_1424
*1229 FILLER_11_144
*1230 FILLER_11_1440
*1231 FILLER_11_1456
*1232 FILLER_11_1472
*1233 FILLER_11_1488
*1234 FILLER_11_1504
*1235 FILLER_11_1520
*1236 FILLER_11_1536
*1237 FILLER_11_1552
*1238 FILLER_11_1568
*1239 FILLER_11_1584
*1240 FILLER_11_16
*1241 FILLER_11_160
*1242 FILLER_11_1600
*1243 FILLER_11_1616
*1244 FILLER_11_1632
*1245 FILLER_11_1648
*1246 FILLER_11_1664
*1247 FILLER_11_1680
*1248 FILLER_11_1696
*1249 FILLER_11_1712
*1250 FILLER_11_1728
*1251 FILLER_11_1744
*1252 FILLER_11_176
*1253 FILLER_11_1760
*1254 FILLER_11_1776
*1255 FILLER_11_1792
*1256 FILLER_11_1808
*1257 FILLER_11_1824
*1258 FILLER_11_1840
*1259 FILLER_11_1856
*1260 FILLER_11_1872
*1261 FILLER_11_1888
*1262 FILLER_11_1904
*1263 FILLER_11_192
*1264 FILLER_11_1920
*1265 FILLER_11_1936
*1266 FILLER_11_1952
*1267 FILLER_11_1968
*1268 FILLER_11_1984
*1269 FILLER_11_2000
*1270 FILLER_11_2016
*1271 FILLER_11_2032
*1272 FILLER_11_2048
*1273 FILLER_11_2064
*1274 FILLER_11_208
*1275 FILLER_11_2080
*1276 FILLER_11_2096
*1277 FILLER_11_2112
*1278 FILLER_11_2128
*1279 FILLER_11_2144
*1280 FILLER_11_2160
*1281 FILLER_11_2176
*1282 FILLER_11_2192
*1283 FILLER_11_2208
*1284 FILLER_11_2224
*1285 FILLER_11_224
*1286 FILLER_11_2240
*1287 FILLER_11_2256
*1288 FILLER_11_2272
*1289 FILLER_11_2288
*1290 FILLER_11_2304
*1291 FILLER_11_2320
*1292 FILLER_11_2336
*1293 FILLER_11_2352
*1294 FILLER_11_2368
*1295 FILLER_11_2384
*1296 FILLER_11_240
*1297 FILLER_11_2400
*1298 FILLER_11_2416
*1299 FILLER_11_2432
*1300 FILLER_11_2448
*1301 FILLER_11_2464
*1302 FILLER_11_2480
*1303 FILLER_11_2496
*1304 FILLER_11_2512
*1305 FILLER_11_2528
*1306 FILLER_11_2544
*1307 FILLER_11_256
*1308 FILLER_11_2560
*1309 FILLER_11_2576
*1310 FILLER_11_2592
*1311 FILLER_11_2608
*1312 FILLER_11_2624
*1313 FILLER_11_2640
*1314 FILLER_11_2656
*1315 FILLER_11_2672
*1316 FILLER_11_2688
*1317 FILLER_11_2704
*1318 FILLER_11_272
*1319 FILLER_11_2720
*1320 FILLER_11_2736
*1321 FILLER_11_2752
*1322 FILLER_11_2768
*1323 FILLER_11_2784
*1324 FILLER_11_2800
*1325 FILLER_11_2816
*1326 FILLER_11_2832
*1327 FILLER_11_2848
*1328 FILLER_11_2864
*1329 FILLER_11_288
*1330 FILLER_11_2880
*1331 FILLER_11_2896
*1332 FILLER_11_2912
*1333 FILLER_11_2928
*1334 FILLER_11_2944
*1335 FILLER_11_2960
*1336 FILLER_11_2976
*1337 FILLER_11_2992
*1338 FILLER_11_3008
*1339 FILLER_11_3024
*1340 FILLER_11_304
*1341 FILLER_11_3040
*1342 FILLER_11_3056
*1343 FILLER_11_3072
*1344 FILLER_11_3088
*1345 FILLER_11_3104
*1346 FILLER_11_3120
*1347 FILLER_11_3136
*1348 FILLER_11_3152
*1349 FILLER_11_3168
*1350 FILLER_11_3184
*1351 FILLER_11_32
*1352 FILLER_11_320
*1353 FILLER_11_3200
*1354 FILLER_11_3216
*1355 FILLER_11_3232
*1356 FILLER_11_3248
*1357 FILLER_11_3264
*1358 FILLER_11_3280
*1359 FILLER_11_3296
*1360 FILLER_11_3312
*1361 FILLER_11_3328
*1362 FILLER_11_3344
*1363 FILLER_11_336
*1364 FILLER_11_3360
*1365 FILLER_11_3376
*1366 FILLER_11_3392
*1367 FILLER_11_3408
*1368 FILLER_11_3424
*1369 FILLER_11_3440
*1370 FILLER_11_3456
*1371 FILLER_11_3472
*1372 FILLER_11_3488
*1373 FILLER_11_3504
*1374 FILLER_11_352
*1375 FILLER_11_3520
*1376 FILLER_11_3536
*1377 FILLER_11_3552
*1378 FILLER_11_3568
*1379 FILLER_11_3584
*1380 FILLER_11_3600
*1381 FILLER_11_3616
*1382 FILLER_11_3632
*1383 FILLER_11_3648
*1384 FILLER_11_3664
*1385 FILLER_11_368
*1386 FILLER_11_3680
*1387 FILLER_11_3696
*1388 FILLER_11_3712
*1389 FILLER_11_3728
*1390 FILLER_11_3744
*1391 FILLER_11_3760
*1392 FILLER_11_3776
*1393 FILLER_11_3792
*1394 FILLER_11_3808
*1395 FILLER_11_3824
*1396 FILLER_11_384
*1397 FILLER_11_3840
*1398 FILLER_11_3856
*1399 FILLER_11_3872
*1400 FILLER_11_3888
*1401 FILLER_11_3904
*1402 FILLER_11_3920
*1403 FILLER_11_3936
*1404 FILLER_11_3952
*1405 FILLER_11_3968
*1406 FILLER_11_3984
*1407 FILLER_11_400
*1408 FILLER_11_4000
*1409 FILLER_11_4016
*1410 FILLER_11_4032
*1411 FILLER_11_4048
*1412 FILLER_11_4064
*1413 FILLER_11_4080
*1414 FILLER_11_4096
*1415 FILLER_11_4112
*1416 FILLER_11_4128
*1417 FILLER_11_4144
*1418 FILLER_11_416
*1419 FILLER_11_4160
*1420 FILLER_11_4176
*1421 FILLER_11_4192
*1422 FILLER_11_4208
*1423 FILLER_11_4224
*1424 FILLER_11_4240
*1425 FILLER_11_4256
*1426 FILLER_11_4272
*1427 FILLER_11_4288
*1428 FILLER_11_4304
*1429 FILLER_11_432
*1430 FILLER_11_4320
*1431 FILLER_11_4336
*1432 FILLER_11_4352
*1433 FILLER_11_4368
*1434 FILLER_11_4384
*1435 FILLER_11_4400
*1436 FILLER_11_4416
*1437 FILLER_11_4432
*1438 FILLER_11_4448
*1439 FILLER_11_4464
*1440 FILLER_11_448
*1441 FILLER_11_4480
*1442 FILLER_11_4496
*1443 FILLER_11_4512
*1444 FILLER_11_4528
*1445 FILLER_11_4544
*1446 FILLER_11_4560
*1447 FILLER_11_4576
*1448 FILLER_11_4592
*1449 FILLER_11_4608
*1450 FILLER_11_4624
*1451 FILLER_11_464
*1452 FILLER_11_4640
*1453 FILLER_11_4656
*1454 FILLER_11_4672
*1455 FILLER_11_4688
*1456 FILLER_11_4704
*1457 FILLER_11_4720
*1458 FILLER_11_4736
*1459 FILLER_11_4752
*1460 FILLER_11_4768
*1461 FILLER_11_4784
*1462 FILLER_11_48
*1463 FILLER_11_480
*1464 FILLER_11_4800
*1465 FILLER_11_4816
*1466 FILLER_11_4832
*1467 FILLER_11_4848
*1468 FILLER_11_4864
*1469 FILLER_11_4880
*1470 FILLER_11_4896
*1471 FILLER_11_4912
*1472 FILLER_11_4928
*1473 FILLER_11_4944
*1474 FILLER_11_496
*1475 FILLER_11_4960
*1476 FILLER_11_4976
*1477 FILLER_11_4992
*1478 FILLER_11_5008
*1479 FILLER_11_5024
*1480 FILLER_11_5040
*1481 FILLER_11_5056
*1482 FILLER_11_5072
*1483 FILLER_11_5088
*1484 FILLER_11_5104
*1485 FILLER_11_512
*1486 FILLER_11_5120
*1487 FILLER_11_5136
*1488 FILLER_11_5152
*1489 FILLER_11_5168
*1490 FILLER_11_5184
*1491 FILLER_11_5200
*1492 FILLER_11_5216
*1493 FILLER_11_5232
*1494 FILLER_11_5248
*1495 FILLER_11_5264
*1496 FILLER_11_528
*1497 FILLER_11_5280
*1498 FILLER_11_5296
*1499 FILLER_11_5312
*1500 FILLER_11_5328
*1501 FILLER_11_5344
*1502 FILLER_11_5360
*1503 FILLER_11_5376
*1504 FILLER_11_5392
*1505 FILLER_11_5408
*1506 FILLER_11_5424
*1507 FILLER_11_544
*1508 FILLER_11_5440
*1509 FILLER_11_5456
*1510 FILLER_11_5472
*1511 FILLER_11_5488
*1512 FILLER_11_5504
*1513 FILLER_11_5520
*1514 FILLER_11_5536
*1515 FILLER_11_5552
*1516 FILLER_11_5568
*1517 FILLER_11_5584
*1518 FILLER_11_560
*1519 FILLER_11_5600
*1520 FILLER_11_5616
*1521 FILLER_11_5632
*1522 FILLER_11_5648
*1523 FILLER_11_5664
*1524 FILLER_11_5680
*1525 FILLER_11_5696
*1526 FILLER_11_5712
*1527 FILLER_11_5728
*1528 FILLER_11_5744
*1529 FILLER_11_576
*1530 FILLER_11_5760
*1531 FILLER_11_5776
*1532 FILLER_11_5792
*1533 FILLER_11_5808
*1534 FILLER_11_5824
*1535 FILLER_11_5840
*1536 FILLER_11_5856
*1537 FILLER_11_5872
*1538 FILLER_11_5888
*1539 FILLER_11_5904
*1540 FILLER_11_592
*1541 FILLER_11_5920
*1542 FILLER_11_5936