*SPEF "ieee 1481-1999"
*DESIGN "adder_wrapper"
*DATE "11:11:11 Fri 11 11, 1111"
*VENDOR "OpenRCX"
*PROGRAM "Parallel Extraction"
*VERSION "1.0"
*DESIGN_FLOW "NAME_SCOPE LOCAL" "PIN_CAP NONE"
*DIVIDER /
*DELIMITER :
*BUS_DELIMITER []
*T_UNIT 1 NS
*C_UNIT 1 PF
*R_UNIT 1 OHM
*L_UNIT 1 HENRY

*NAME_MAP
*1 io_in[0]
*2 io_in[10]
*3 io_in[11]
*4 io_in[12]
*5 io_in[13]
*6 io_in[14]
*7 io_in[15]
*8 io_in[16]
*9 io_in[17]
*10 io_in[18]
*11 io_in[19]
*12 io_in[1]
*13 io_in[20]
*14 io_in[21]
*15 io_in[22]
*16 io_in[23]
*17 io_in[24]
*18 io_in[25]
*19 io_in[26]
*20 io_in[27]
*21 io_in[28]
*22 io_in[29]
*23 io_in[2]
*24 io_in[30]
*25 io_in[31]
*26 io_in[32]
*27 io_in[33]
*28 io_in[34]
*29 io_in[35]
*30 io_in[36]
*31 io_in[37]
*32 io_in[3]
*33 io_in[4]
*34 io_in[5]
*35 io_in[6]
*36 io_in[7]
*37 io_in[8]
*38 io_in[9]
*39 io_oeb[0]
*40 io_oeb[10]
*41 io_oeb[11]
*42 io_oeb[12]
*43 io_oeb[13]
*44 io_oeb[14]
*45 io_oeb[15]
*46 io_oeb[16]
*47 io_oeb[17]
*48 io_oeb[18]
*49 io_oeb[19]
*50 io_oeb[1]
*51 io_oeb[20]
*52 io_oeb[21]
*53 io_oeb[22]
*54 io_oeb[23]
*55 io_oeb[24]
*56 io_oeb[25]
*57 io_oeb[26]
*58 io_oeb[27]
*59 io_oeb[28]
*60 io_oeb[29]
*61 io_oeb[2]
*62 io_oeb[30]
*63 io_oeb[31]
*64 io_oeb[32]
*65 io_oeb[33]
*66 io_oeb[34]
*67 io_oeb[35]
*68 io_oeb[36]
*69 io_oeb[37]
*70 io_oeb[3]
*71 io_oeb[4]
*72 io_oeb[5]
*73 io_oeb[6]
*74 io_oeb[7]
*75 io_oeb[8]
*76 io_oeb[9]
*77 io_out[0]
*78 io_out[10]
*79 io_out[11]
*80 io_out[12]
*81 io_out[13]
*82 io_out[14]
*83 io_out[15]
*84 io_out[16]
*85 io_out[17]
*86 io_out[18]
*87 io_out[19]
*88 io_out[1]
*89 io_out[20]
*90 io_out[21]
*91 io_out[22]
*92 io_out[23]
*93 io_out[24]
*94 io_out[25]
*95 io_out[26]
*96 io_out[27]
*97 io_out[28]
*98 io_out[29]
*99 io_out[2]
*100 io_out[30]
*101 io_out[31]
*102 io_out[32]
*103 io_out[33]
*104 io_out[34]
*105 io_out[35]
*106 io_out[36]
*107 io_out[37]
*108 io_out[3]
*109 io_out[4]
*110 io_out[5]
*111 io_out[6]
*112 io_out[7]
*113 io_out[8]
*114 io_out[9]
*115 la_data_in[0]
*116 la_data_in[10]
*117 la_data_in[11]
*118 la_data_in[12]
*119 la_data_in[13]
*120 la_data_in[14]
*121 la_data_in[15]
*122 la_data_in[16]
*123 la_data_in[17]
*124 la_data_in[18]
*125 la_data_in[19]
*126 la_data_in[1]
*127 la_data_in[20]
*128 la_data_in[21]
*129 la_data_in[22]
*130 la_data_in[23]
*131 la_data_in[24]
*132 la_data_in[25]
*133 la_data_in[26]
*134 la_data_in[27]
*135 la_data_in[28]
*136 la_data_in[29]
*137 la_data_in[2]
*138 la_data_in[30]
*139 la_data_in[31]
*140 la_data_in[32]
*141 la_data_in[33]
*142 la_data_in[34]
*143 la_data_in[35]
*144 la_data_in[36]
*145 la_data_in[37]
*146 la_data_in[38]
*147 la_data_in[39]
*148 la_data_in[3]
*149 la_data_in[40]
*150 la_data_in[41]
*151 la_data_in[42]
*152 la_data_in[43]
*153 la_data_in[44]
*154 la_data_in[45]
*155 la_data_in[46]
*156 la_data_in[47]
*157 la_data_in[48]
*158 la_data_in[49]
*159 la_data_in[4]
*160 la_data_in[50]
*161 la_data_in[51]
*162 la_data_in[52]
*163 la_data_in[53]
*164 la_data_in[54]
*165 la_data_in[55]
*166 la_data_in[56]
*167 la_data_in[57]
*168 la_data_in[58]
*169 la_data_in[59]
*170 la_data_in[5]
*171 la_data_in[60]
*172 la_data_in[61]
*173 la_data_in[62]
*174 la_data_in[63]
*175 la_data_in[6]
*176 la_data_in[7]
*177 la_data_in[8]
*178 la_data_in[9]
*179 la_data_out[0]
*180 la_data_out[10]
*181 la_data_out[11]
*182 la_data_out[12]
*183 la_data_out[13]
*184 la_data_out[14]
*185 la_data_out[15]
*186 la_data_out[16]
*187 la_data_out[17]
*188 la_data_out[18]
*189 la_data_out[19]
*190 la_data_out[1]
*191 la_data_out[20]
*192 la_data_out[21]
*193 la_data_out[22]
*194 la_data_out[23]
*195 la_data_out[24]
*196 la_data_out[25]
*197 la_data_out[26]
*198 la_data_out[27]
*199 la_data_out[28]
*200 la_data_out[29]
*201 la_data_out[2]
*202 la_data_out[30]
*203 la_data_out[31]
*204 la_data_out[32]
*205 la_data_out[33]
*206 la_data_out[34]
*207 la_data_out[35]
*208 la_data_out[36]
*209 la_data_out[37]
*210 la_data_out[38]
*211 la_data_out[39]
*212 la_data_out[3]
*213 la_data_out[40]
*214 la_data_out[41]
*215 la_data_out[42]
*216 la_data_out[43]
*217 la_data_out[44]
*218 la_data_out[45]
*219 la_data_out[46]
*220 la_data_out[47]
*221 la_data_out[48]
*222 la_data_out[49]
*223 la_data_out[4]
*224 la_data_out[50]
*225 la_data_out[51]
*226 la_data_out[52]
*227 la_data_out[53]
*228 la_data_out[54]
*229 la_data_out[55]
*230 la_data_out[56]
*231 la_data_out[57]
*232 la_data_out[58]
*233 la_data_out[59]
*234 la_data_out[5]
*235 la_data_out[60]
*236 la_data_out[61]
*237 la_data_out[62]
*238 la_data_out[63]
*239 la_data_out[6]
*240 la_data_out[7]
*241 la_data_out[8]
*242 la_data_out[9]
*243 la_oenb[0]
*244 la_oenb[10]
*245 la_oenb[11]
*246 la_oenb[12]
*247 la_oenb[13]
*248 la_oenb[14]
*249 la_oenb[15]
*250 la_oenb[16]
*251 la_oenb[17]
*252 la_oenb[18]
*253 la_oenb[19]
*254 la_oenb[1]
*255 la_oenb[20]
*256 la_oenb[21]
*257 la_oenb[22]
*258 la_oenb[23]
*259 la_oenb[24]
*260 la_oenb[25]
*261 la_oenb[26]
*262 la_oenb[27]
*263 la_oenb[28]
*264 la_oenb[29]
*265 la_oenb[2]
*266 la_oenb[30]
*267 la_oenb[31]
*268 la_oenb[32]
*269 la_oenb[33]
*270 la_oenb[34]
*271 la_oenb[35]
*272 la_oenb[36]
*273 la_oenb[37]
*274 la_oenb[38]
*275 la_oenb[39]
*276 la_oenb[3]
*277 la_oenb[40]
*278 la_oenb[41]
*279 la_oenb[42]
*280 la_oenb[43]
*281 la_oenb[44]
*282 la_oenb[45]
*283 la_oenb[46]
*284 la_oenb[47]
*285 la_oenb[48]
*286 la_oenb[49]
*287 la_oenb[4]
*288 la_oenb[50]
*289 la_oenb[51]
*290 la_oenb[52]
*291 la_oenb[53]
*292 la_oenb[54]
*293 la_oenb[55]
*294 la_oenb[56]
*295 la_oenb[57]
*296 la_oenb[58]
*297 la_oenb[59]
*298 la_oenb[5]
*299 la_oenb[60]
*300 la_oenb[61]
*301 la_oenb[62]
*302 la_oenb[63]
*303 la_oenb[6]
*304 la_oenb[7]
*305 la_oenb[8]
*306 la_oenb[9]
*307 user_clock2
*308 user_irq[0]
*309 user_irq[1]
*310 user_irq[2]
*313 wb_clk_i
*314 wb_rst_i
*315 wbs_ack_o
*316 wbs_adr_i[0]
*317 wbs_adr_i[10]
*318 wbs_adr_i[11]
*319 wbs_adr_i[12]
*320 wbs_adr_i[13]
*321 wbs_adr_i[14]
*322 wbs_adr_i[15]
*323 wbs_adr_i[16]
*324 wbs_adr_i[17]
*325 wbs_adr_i[18]
*326 wbs_adr_i[19]
*327 wbs_adr_i[1]
*328 wbs_adr_i[20]
*329 wbs_adr_i[21]
*330 wbs_adr_i[22]
*331 wbs_adr_i[23]
*332 wbs_adr_i[24]
*333 wbs_adr_i[25]
*334 wbs_adr_i[26]
*335 wbs_adr_i[27]
*336 wbs_adr_i[28]
*337 wbs_adr_i[29]
*338 wbs_adr_i[2]
*339 wbs_adr_i[30]
*340 wbs_adr_i[31]
*341 wbs_adr_i[3]
*342 wbs_adr_i[4]
*343 wbs_adr_i[5]
*344 wbs_adr_i[6]
*345 wbs_adr_i[7]
*346 wbs_adr_i[8]
*347 wbs_adr_i[9]
*348 wbs_cyc_i
*349 wbs_dat_i[0]
*350 wbs_dat_i[10]
*351 wbs_dat_i[11]
*352 wbs_dat_i[12]
*353 wbs_dat_i[13]
*354 wbs_dat_i[14]
*355 wbs_dat_i[15]
*356 wbs_dat_i[16]
*357 wbs_dat_i[17]
*358 wbs_dat_i[18]
*359 wbs_dat_i[19]
*360 wbs_dat_i[1]
*361 wbs_dat_i[20]
*362 wbs_dat_i[21]
*363 wbs_dat_i[22]
*364 wbs_dat_i[23]
*365 wbs_dat_i[24]
*366 wbs_dat_i[25]
*367 wbs_dat_i[26]
*368 wbs_dat_i[27]
*369 wbs_dat_i[28]
*370 wbs_dat_i[29]
*371 wbs_dat_i[2]
*372 wbs_dat_i[30]
*373 wbs_dat_i[31]
*374 wbs_dat_i[3]
*375 wbs_dat_i[4]
*376 wbs_dat_i[5]
*377 wbs_dat_i[6]
*378 wbs_dat_i[7]
*379 wbs_dat_i[8]
*380 wbs_dat_i[9]
*381 wbs_dat_o[0]
*382 wbs_dat_o[10]
*383 wbs_dat_o[11]
*384 wbs_dat_o[12]
*385 wbs_dat_o[13]
*386 wbs_dat_o[14]
*387 wbs_dat_o[15]
*388 wbs_dat_o[16]
*389 wbs_dat_o[17]
*390 wbs_dat_o[18]
*391 wbs_dat_o[19]
*392 wbs_dat_o[1]
*393 wbs_dat_o[20]
*394 wbs_dat_o[21]
*395 wbs_dat_o[22]
*396 wbs_dat_o[23]
*397 wbs_dat_o[24]
*398 wbs_dat_o[25]
*399 wbs_dat_o[26]
*400 wbs_dat_o[27]
*401 wbs_dat_o[28]
*402 wbs_dat_o[29]
*403 wbs_dat_o[2]
*404 wbs_dat_o[30]
*405 wbs_dat_o[31]
*406 wbs_dat_o[3]
*407 wbs_dat_o[4]
*408 wbs_dat_o[5]
*409 wbs_dat_o[6]
*410 wbs_dat_o[7]
*411 wbs_dat_o[8]
*412 wbs_dat_o[9]
*413 wbs_sel_i[0]
*414 wbs_sel_i[1]
*415 wbs_sel_i[2]
*416 wbs_sel_i[3]
*417 wbs_stb_i
*418 wbs_we_i
*419 mprj

*PORTS
io_in[0] I
io_in[10] I
io_in[11] I
io_in[12] I
io_in[13] I
io_in[14] I
io_in[15] I
io_in[16] I
io_in[17] I
io_in[18] I
io_in[19] I
io_in[1] I
io_in[20] I
io_in[21] I
io_in[22] I
io_in[23] I
io_in[24] I
io_in[25] I
io_in[26] I
io_in[27] I
io_in[28] I
io_in[29] I
io_in[2] I
io_in[30] I
io_in[31] I
io_in[32] I
io_in[33] I
io_in[34] I
io_in[35] I
io_in[36] I
io_in[37] I
io_in[3] I
io_in[4] I
io_in[5] I
io_in[6] I
io_in[7] I
io_in[8] I
io_in[9] I
io_oeb[0] O
io_oeb[10] O
io_oeb[11] O
io_oeb[12] O
io_oeb[13] O
io_oeb[14] O
io_oeb[15] O
io_oeb[16] O
io_oeb[17] O
io_oeb[18] O
io_oeb[19] O
io_oeb[1] O
io_oeb[20] O
io_oeb[21] O
io_oeb[22] O
io_oeb[23] O
io_oeb[24] O
io_oeb[25] O
io_oeb[26] O
io_oeb[27] O
io_oeb[28] O
io_oeb[29] O
io_oeb[2] O
io_oeb[30] O
io_oeb[31] O
io_oeb[32] O
io_oeb[33] O
io_oeb[34] O
io_oeb[35] O
io_oeb[36] O
io_oeb[37] O
io_oeb[3] O
io_oeb[4] O
io_oeb[5] O
io_oeb[6] O
io_oeb[7] O
io_oeb[8] O
io_oeb[9] O
io_out[0] O
io_out[10] O
io_out[11] O
io_out[12] O
io_out[13] O
io_out[14] O
io_out[15] O
io_out[16] O
io_out[17] O
io_out[18] O
io_out[19] O
io_out[1] O
io_out[20] O
io_out[21] O
io_out[22] O
io_out[23] O
io_out[24] O
io_out[25] O
io_out[26] O
io_out[27] O
io_out[28] O
io_out[29] O
io_out[2] O
io_out[30] O
io_out[31] O
io_out[32] O
io_out[33] O
io_out[34] O
io_out[35] O
io_out[36] O
io_out[37] O
io_out[3] O
io_out[4] O
io_out[5] O
io_out[6] O
io_out[7] O
io_out[8] O
io_out[9] O
la_data_in[0] I
la_data_in[10] I
la_data_in[11] I
la_data_in[12] I
la_data_in[13] I
la_data_in[14] I
la_data_in[15] I
la_data_in[16] I
la_data_in[17] I
la_data_in[18] I
la_data_in[19] I
la_data_in[1] I
la_data_in[20] I
la_data_in[21] I
la_data_in[22] I
la_data_in[23] I
la_data_in[24] I
la_data_in[25] I
la_data_in[26] I
la_data_in[27] I
la_data_in[28] I
la_data_in[29] I
la_data_in[2] I
la_data_in[30] I
la_data_in[31] I
la_data_in[32] I
la_data_in[33] I
la_data_in[34] I
la_data_in[35] I
la_data_in[36] I
la_data_in[37] I
la_data_in[38] I
la_data_in[39] I
la_data_in[3] I
la_data_in[40] I
la_data_in[41] I
la_data_in[42] I
la_data_in[43] I
la_data_in[44] I
la_data_in[45] I
la_data_in[46] I
la_data_in[47] I
la_data_in[48] I
la_data_in[49] I
la_data_in[4] I
la_data_in[50] I
la_data_in[51] I
la_data_in[52] I
la_data_in[53] I
la_data_in[54] I
la_data_in[55] I
la_data_in[56] I
la_data_in[57] I
la_data_in[58] I
la_data_in[59] I
la_data_in[5] I
la_data_in[60] I
la_data_in[61] I
la_data_in[62] I
la_data_in[63] I
la_data_in[6] I
la_data_in[7] I
la_data_in[8] I
la_data_in[9] I
la_data_out[0] O
la_data_out[10] O
la_data_out[11] O
la_data_out[12] O
la_data_out[13] O
la_data_out[14] O
la_data_out[15] O
la_data_out[16] O
la_data_out[17] O
la_data_out[18] O
la_data_out[19] O
la_data_out[1] O
la_data_out[20] O
la_data_out[21] O
la_data_out[22] O
la_data_out[23] O
la_data_out[24] O
la_data_out[25] O
la_data_out[26] O
la_data_out[27] O
la_data_out[28] O
la_data_out[29] O
la_data_out[2] O
la_data_out[30] O
la_data_out[31] O
la_data_out[32] O
la_data_out[33] O
la_data_out[34] O
la_data_out[35] O
la_data_out[36] O
la_data_out[37] O
la_data_out[38] O
la_data_out[39] O
la_data_out[3] O
la_data_out[40] O
la_data_out[41] O
la_data_out[42] O
la_data_out[43] O
la_data_out[44] O
la_data_out[45] O
la_data_out[46] O
la_data_out[47] O
la_data_out[48] O
la_data_out[49] O
la_data_out[4] O
la_data_out[50] O
la_data_out[51] O
la_data_out[52] O
la_data_out[53] O
la_data_out[54] O
la_data_out[55] O
la_data_out[56] O
la_data_out[57] O
la_data_out[58] O
la_data_out[59] O
la_data_out[5] O
la_data_out[60] O
la_data_out[61] O
la_data_out[62] O
la_data_out[63] O
la_data_out[6] O
la_data_out[7] O
la_data_out[8] O
la_data_out[9] O
la_oenb[0] I
la_oenb[10] I
la_oenb[11] I
la_oenb[12] I
la_oenb[13] I
la_oenb[14] I
la_oenb[15] I
la_oenb[16] I
la_oenb[17] I
la_oenb[18] I
la_oenb[19] I
la_oenb[1] I
la_oenb[20] I
la_oenb[21] I
la_oenb[22] I
la_oenb[23] I
la_oenb[24] I
la_oenb[25] I
la_oenb[26] I
la_oenb[27] I
la_oenb[28] I
la_oenb[29] I
la_oenb[2] I
la_oenb[30] I
la_oenb[31] I
la_oenb[32] I
la_oenb[33] I
la_oenb[34] I
la_oenb[35] I
la_oenb[36] I
la_oenb[37] I
la_oenb[38] I
la_oenb[39] I
la_oenb[3] I
la_oenb[40] I
la_oenb[41] I
la_oenb[42] I
la_oenb[43] I
la_oenb[44] I
la_oenb[45] I
la_oenb[46] I
la_oenb[47] I
la_oenb[48] I
la_oenb[49] I
la_oenb[4] I
la_oenb[50] I
la_oenb[51] I
la_oenb[52] I
la_oenb[53] I
la_oenb[54] I
la_oenb[55] I
la_oenb[56] I
la_oenb[57] I
la_oenb[58] I
la_oenb[59] I
la_oenb[5] I
la_oenb[60] I
la_oenb[61] I
la_oenb[62] I
la_oenb[63] I
la_oenb[6] I
la_oenb[7] I
la_oenb[8] I
la_oenb[9] I
user_clock2 I
user_irq[0] O
user_irq[1] O
user_irq[2] O
wb_clk_i I
wb_rst_i I
wbs_ack_o O
wbs_adr_i[0] I
wbs_adr_i[10] I
wbs_adr_i[11] I
wbs_adr_i[12] I
wbs_adr_i[13] I
wbs_adr_i[14] I
wbs_adr_i[15] I
wbs_adr_i[16] I
wbs_adr_i[17] I
wbs_adr_i[18] I
wbs_adr_i[19] I
wbs_adr_i[1] I
wbs_adr_i[20] I
wbs_adr_i[21] I
wbs_adr_i[22] I
wbs_adr_i[23] I
wbs_adr_i[24] I
wbs_adr_i[25] I
wbs_adr_i[26] I
wbs_adr_i[27] I
wbs_adr_i[28] I
wbs_adr_i[29] I
wbs_adr_i[2] I
wbs_adr_i[30] I
wbs_adr_i[31] I
wbs_adr_i[3] I
wbs_adr_i[4] I
wbs_adr_i[5] I
wbs_adr_i[6] I
wbs_adr_i[7] I
wbs_adr_i[8] I
wbs_adr_i[9] I
wbs_cyc_i I
wbs_dat_i[0] I
wbs_dat_i[10] I
wbs_dat_i[11] I
wbs_dat_i[12] I
wbs_dat_i[13] I
wbs_dat_i[14] I
wbs_dat_i[15] I
wbs_dat_i[16] I
wbs_dat_i[17] I
wbs_dat_i[18] I
wbs_dat_i[19] I
wbs_dat_i[1] I
wbs_dat_i[20] I
wbs_dat_i[21] I
wbs_dat_i[22] I
wbs_dat_i[23] I
wbs_dat_i[24] I
wbs_dat_i[25] I
wbs_dat_i[26] I
wbs_dat_i[27] I
wbs_dat_i[28] I
wbs_dat_i[29] I
wbs_dat_i[2] I
wbs_dat_i[30] I
wbs_dat_i[31] I
wbs_dat_i[3] I
wbs_dat_i[4] I
wbs_dat_i[5] I
wbs_dat_i[6] I
wbs_dat_i[7] I
wbs_dat_i[8] I
wbs_dat_i[9] I
wbs_dat_o[0] O
wbs_dat_o[10] O
wbs_dat_o[11] O
wbs_dat_o[12] O
wbs_dat_o[13] O
wbs_dat_o[14] O
wbs_dat_o[15] O
wbs_dat_o[16] O
wbs_dat_o[17] O
wbs_dat_o[18] O
wbs_dat_o[19] O
wbs_dat_o[1] O
wbs_dat_o[20] O
wbs_dat_o[21] O
wbs_dat_o[22] O
wbs_dat_o[23] O
wbs_dat_o[24] O
wbs_dat_o[25] O
wbs_dat_o[26] O
wbs_dat_o[27] O
wbs_dat_o[28] O
wbs_dat_o[29] O
wbs_dat_o[2] O
wbs_dat_o[30] O
wbs_dat_o[31] O
wbs_dat_o[3] O
wbs_dat_o[4] O
wbs_dat_o[5] O
wbs_dat_o[6] O
wbs_dat_o[7] O
wbs_dat_o[8] O
wbs_dat_o[9] O
wbs_sel_i[0] I
wbs_sel_i[1] I
wbs_sel_i[2] I
wbs_sel_i[3] I
wbs_stb_i I
wbs_we_i I

*D_NET *1 0.281805
*CONN
*P io_in[0] I
*I *419:a_in[0] I *D adder
*CAP
1 io_in[0] 0.00468274
2 *419:a_in[0] 0.000258542
3 *1:12 0.0691727
4 *1:11 0.0689142
5 *1:9 0.0670469
6 *1:7 0.0717297
*RES
1 io_in[0] *1:7 37.305 
2 *1:7 *1:9 526.5 
3 *1:9 *1:11 4.5 
4 *1:11 *1:12 532.53 
5 *1:12 *419:a_in[0] 2.025 
*END

*D_NET *2 0.0874887
*CONN
*P io_in[10] I
*I *419:b_in[2] I *D adder
*CAP
1 io_in[10] 0.00102706
2 *419:b_in[2] 0.00131088
3 *2:11 0.0363551
4 *2:10 0.0350442
5 *2:8 0.00505424
6 *2:7 0.00608131
7 *2:8 *3:8 0.00261587
*RES
1 io_in[10] *2:7 12.825 
2 *2:7 *2:8 46.53 
3 *2:8 *2:10 4.5 
4 *2:10 *2:11 274.14 
5 *2:11 *419:b_in[2] 9.855 
*END

*D_NET *3 0.11385
*CONN
*P io_in[11] I
*I *419:b_in[3] I *D adder
*CAP
1 io_in[11] 0.000945234
2 *419:b_in[3] 0.000134736
3 *3:11 0.0363829
4 *3:10 0.0362481
5 *3:8 0.00617218
6 *3:7 0.00711742
7 *3:8 *4:8 0.0242337
8 *2:8 *3:8 0.00261587
*RES
1 io_in[11] *3:7 12.285 
2 *3:7 *3:8 85.95 
3 *3:8 *3:10 4.5 
4 *3:10 *3:11 282.87 
5 *3:11 *419:b_in[3] 1.125 
*END

*D_NET *4 0.150036
*CONN
*P io_in[12] I
*I *419:b_in[4] I *D adder
*CAP
1 io_in[12] 0.000966792
2 *419:b_in[4] 0.00011184
3 *4:11 0.0363213
4 *4:10 0.0362094
5 *4:8 0.00573508
6 *4:7 0.00670187
7 *4:8 *5:8 0.0397558
8 *3:8 *4:8 0.0242337
*RES
1 io_in[12] *4:7 12.465 
2 *4:7 *4:8 125.37 
3 *4:8 *4:10 4.5 
4 *4:10 *4:11 282.69 
5 *4:11 *419:b_in[4] 0.765 
*END

*D_NET *5 0.180943
*CONN
*P io_in[13] I
*I *419:b_in[5] I *D adder
*CAP
1 io_in[13] 0.00098835
2 *419:b_in[5] 4.85048e-05
3 *5:11 0.0362364
4 *5:10 0.0361879
5 *5:8 0.00573553
6 *5:7 0.00672388
7 *5:8 *6:8 0.0552665
8 *4:8 *5:8 0.0397558
*RES
1 io_in[13] *5:7 12.645 
2 *5:7 *5:8 164.79 
3 *5:8 *5:10 4.5 
4 *5:10 *5:11 282.51 
5 *5:11 *419:b_in[5] 0.405 
*END

*D_NET *6 0.181274
*CONN
*P io_in[14] I
*I *419:b_in[6] I *D adder
*CAP
1 io_in[14] 0.00100991
2 *419:b_in[6] 0.0446085
3 *6:10 0.0446085
4 *6:8 0.0173852
5 *6:7 0.0183951
6 *5:8 *6:8 0.0552665
*RES
1 io_in[14] *6:7 12.825 
2 *6:7 *6:8 204.21 
3 *6:8 *6:10 4.5 
4 *6:10 *419:b_in[6] 282.285 
*END

*D_NET *7 0.131862
*CONN
*P io_in[15] I
*I *419:b_in[7] I *D adder
*CAP
1 io_in[15] 0.0305854
2 *419:b_in[7] 0.00141867
3 *7:8 0.0353457
4 *7:7 0.033927
5 *7:5 0.0305854
*RES
1 io_in[15] *7:5 236.385 
2 *7:5 *7:7 4.5 
3 *7:7 *7:8 264.78 
4 *7:8 *419:b_in[7] 10.755 
*END

*D_NET *12 0.287977
*CONN
*P io_in[1] I
*I *419:a_in[1] I *D adder
*CAP
1 io_in[1] 0.000350475
2 *419:a_in[1] 0.000114908
3 *12:16 0.0609017
4 *12:15 0.0607868
5 *12:13 0.0827362
6 *12:11 0.0830867
*RES
1 io_in[1] *12:11 3.195 
2 *12:11 *12:13 525.33 
3 *12:13 *12:15 4.5 
4 *12:15 *12:16 469.8 
5 *12:16 *419:a_in[1] 0.945 
*END

*D_NET *23 0.230609
*CONN
*P io_in[2] I
*I *419:a_in[2] I *D adder
*CAP
1 io_in[2] 0.000167227
2 *419:a_in[2] 0.000159256
3 *23:16 0.0526477
4 *23:15 0.0524885
5 *23:13 0.0624895
6 *23:11 0.0626567
*RES
1 io_in[2] *23:11 2.115 
2 *23:11 *23:13 490.23 
3 *23:13 *23:15 4.5 
4 *23:15 *23:16 405.63 
5 *23:16 *419:a_in[2] 1.125 
*END

*D_NET *32 0.20482
*CONN
*P io_in[3] I
*I *419:a_in[3] I *D adder
*CAP
1 io_in[3] 0.0579906
2 *419:a_in[3] 0.000302277
3 *32:8 0.0444191
4 *32:7 0.0441169
5 *32:5 0.0579906
*RES
1 io_in[3] *32:5 455.085 
2 *32:5 *32:7 4.5 
3 *32:7 *32:8 340.83 
4 *32:8 *419:a_in[3] 2.025 
*END

*D_NET *33 0.179086
*CONN
*P io_in[4] I
*I *419:a_in[4] I *D adder
*CAP
1 io_in[4] 0.000276978
2 *419:a_in[4] 0.000114908
3 *33:16 0.0361187
4 *33:15 0.0360038
5 *33:13 0.0531471
6 *33:11 0.0534241
*RES
1 io_in[4] *33:11 2.655 
2 *33:11 *33:13 417.33 
3 *33:13 *33:15 4.5 
4 *33:15 *33:16 278.1 
5 *33:16 *419:a_in[4] 0.945 
*END

*D_NET *34 0.153337
*CONN
*P io_in[5] I
*I *419:a_in[5] I *D adder
*CAP
1 io_in[5] 0.00468274
2 *419:a_in[5] 0.000143634
3 *34:12 0.0278402
4 *34:11 0.0276966
5 *34:9 0.0441455
6 *34:7 0.0488282
*RES
1 io_in[5] *34:7 37.305 
2 *34:7 *34:9 345.6 
3 *34:9 *34:11 4.5 
4 *34:11 *34:12 213.93 
5 *34:12 *419:a_in[5] 1.125 
*END

*D_NET *35 0.150031
*CONN
*P io_in[6] I
*I *419:a_in[6] I *D adder
*CAP
1 io_in[6] 0.000337838
2 *419:a_in[6] 0.000258542
3 *35:16 0.0199067
4 *35:15 0.0196482
5 *35:13 0.0547711
6 *35:11 0.0551089
*RES
1 io_in[6] *35:11 3.195 
2 *35:11 *35:13 347.13 
3 *35:13 *35:15 4.5 
4 *35:15 *35:16 151.83 
5 *35:16 *419:a_in[6] 2.025 
*END

*D_NET *36 0.107506
*CONN
*P io_in[7] I
*I *419:a_in[7] I *D adder
*CAP
1 io_in[7] 0.000167227
2 *419:a_in[7] 0.000146447
3 *36:16 0.0141772
4 *36:15 0.0140308
5 *36:13 0.0394084
6 *36:11 0.0395756
*RES
1 io_in[7] *36:11 2.115 
2 *36:11 *36:13 309.33 
3 *36:13 *36:15 4.5 
4 *36:15 *36:16 86.4 
5 *36:16 *419:a_in[7] 0.945 
*END

*D_NET *37 0.0858397
*CONN
*P io_in[8] I
*I *419:b_in[0] I *D adder
*CAP
1 io_in[8] 0.0365786
2 *419:b_in[0] 0.0063413
3 *37:5 0.0429199
*RES
1 io_in[8] *37:5 286.425 
2 *37:5 *419:b_in[0] 47.835 
*END

*D_NET *38 0.076727
*CONN
*P io_in[9] I
*I *419:b_in[1] I *D adder
*CAP
1 io_in[9] 0.00181255
2 *419:b_in[1] 0.001354
3 *38:11 0.036551
4 *38:10 0.0370095
*RES
1 io_in[9] *38:10 23.175 
2 *38:10 *38:11 275.4 
3 *38:11 *419:b_in[1] 10.215 
*END

*D_NET *77 0.448498
*CONN
*P io_out[0] O
*I *419:sum[0] O *D adder
*CAP
1 io_out[0] 0.00463962
2 *419:sum[0] 0.000596573
3 *77:14 0.0368752
4 *77:13 0.0322356
5 *77:11 0.0919347
6 *77:10 0.0919347
7 *77:8 0.00766749
8 *77:7 0.00826406
9 *77:8 *88:8 0.0943761
10 *77:8 *99:8 0.0799744
*RES
1 *419:sum[0] *77:7 8.865 
2 *77:7 *77:8 272.07 
3 *77:8 *77:10 4.5 
4 *77:10 *77:11 707.85 
5 *77:11 *77:13 4.5 
6 *77:13 *77:14 252.54 
7 *77:14 io_out[0] 36.945 
*END

*D_NET *88 0.385772
*CONN
*P io_out[1] O
*I *419:sum[1] O *D adder
*CAP
1 io_out[1] 0.000253458
2 *419:sum[1] 0.000635531
3 *88:14 0.0363533
4 *88:13 0.0360998
5 *88:11 0.0838975
6 *88:10 0.0838975
7 *88:8 0.0120912
8 *88:7 0.0127267
9 *88:8 *99:8 0.000943893
10 *88:8 *111:8 0.0244972
11 *77:8 *88:8 0.0943761
*RES
1 *419:sum[1] *88:7 9.045 
2 *88:7 *88:8 241.47 
3 *88:8 *88:10 4.5 
4 *88:10 *88:11 645.93 
5 *88:11 *88:13 4.5 
6 *88:13 *88:14 283.77 
7 *88:14 io_out[1] 2.835 
*END

*D_NET *99 0.418633
*CONN
*P io_out[2] O
*I *419:sum[2] O *D adder
*CAP
1 io_out[2] 0.000168146
2 *419:sum[2] 0.000686893
3 *99:14 0.0290698
4 *99:13 0.0289016
5 *99:11 0.0754535
6 *99:10 0.0754535
7 *99:8 0.00931338
8 *99:7 0.0100003
9 *99:8 *108:8 0.107692
10 *99:8 *111:8 0.000974573
11 *77:8 *99:8 0.0799744
12 *88:8 *99:8 0.000943893
*RES
1 *419:sum[2] *99:7 8.685 
2 *99:7 *99:8 305.37 
3 *99:8 *99:10 4.5 
4 *99:10 *99:11 580.77 
5 *99:11 *99:13 4.5 
6 *99:13 *99:14 183.87 
7 *99:14 io_out[2] 1.755 
*END

*D_NET *108 0.32628
*CONN
*P io_out[3] O
*I *419:sum[3] O *D adder
*CAP
1 io_out[3] 0.000345078
2 *419:sum[3] 0.00055061
3 *108:14 0.00893195
4 *108:13 0.00858687
5 *108:11 0.0673515
6 *108:10 0.0673515
7 *108:8 0.0324598
8 *108:7 0.0330104
9 *99:8 *108:8 0.107692
*RES
1 *419:sum[3] *108:7 8.505 
2 *108:7 *108:8 385.47 
3 *108:8 *108:10 4.5 
4 *108:10 *108:11 518.49 
5 *108:11 *108:13 4.5 
6 *108:13 *108:14 67.77 
7 *108:14 io_out[3] 3.375 
*END

*D_NET *109 0.250475
*CONN
*P io_out[4] O
*I *419:sum[4] O *D adder
*CAP
1 io_out[4] 0.000188785
2 *419:sum[4] 0.000350313
3 *109:15 0.0355674
4 *109:14 0.0353786
5 *109:12 0.0581868
6 *109:11 0.0581868
7 *109:9 0.0110713
8 *109:7 0.0114216
9 *109:9 *110:7 0.000805313
10 *109:9 *110:9 0.0393178
*RES
1 *419:sum[4] *109:7 7.47 
2 *109:7 *109:9 136.44 
3 *109:9 *109:11 4.5 
4 *109:11 *109:12 448.29 
5 *109:12 *109:14 4.5 
6 *109:14 *109:15 278.37 
7 *109:15 io_out[4] 2.295 
*END

*D_NET *110 0.224502
*CONN
*P io_out[5] O
*I *419:sum[5] O *D adder
*CAP
1 io_out[5] 0.00463962
2 *419:sum[5] 0.000297236
3 *110:15 0.0316184
4 *110:14 0.0269788
5 *110:12 0.0498508
6 *110:11 0.0498508
7 *110:9 0.0104228
8 *110:7 0.01072
9 *109:9 *110:7 0.000805313
10 *109:9 *110:9 0.0393178
*RES
1 *419:sum[5] *110:7 9.09 
2 *110:7 *110:9 128.34 
3 *110:9 *110:11 4.5 
4 *110:11 *110:12 383.67 
5 *110:12 *110:14 4.5 
6 *110:14 *110:15 212.04 
7 *110:15 io_out[5] 36.945 
*END

*D_NET *111 0.192414
*CONN
*P io_out[6] O
*I *419:sum[6] O *D adder
*CAP
1 io_out[6] 0.000253458
2 *419:sum[6] 0.000706443
3 *111:14 0.035333
4 *111:13 0.0350795
5 *111:11 0.0426105
6 *111:10 0.0426105
7 *111:8 0.00482104
8 *111:7 0.00552748
9 *88:8 *111:8 0.0244972
10 *99:8 *111:8 0.000974573
*RES
1 *419:sum[6] *111:7 9.225 
2 *111:7 *111:8 69.57 
3 *111:8 *111:10 4.5 
4 *111:10 *111:11 327.51 
5 *111:11 *111:13 4.5 
6 *111:13 *111:14 275.67 
7 *111:14 io_out[6] 2.835 
*END

*D_NET *112 0.16339
*CONN
*P io_out[7] O
*I *419:sum[7] O *D adder
*CAP
1 io_out[7] 0.000168146
2 *419:sum[7] 0.00486733
3 *112:14 0.0431306
4 *112:13 0.0429625
5 *112:11 0.0336968
6 *112:10 0.0385642
*RES
1 *419:sum[7] *112:10 46.575 
2 *112:10 *112:11 259.29 
3 *112:11 *112:13 4.5 
4 *112:13 *112:14 272.97 
5 *112:14 io_out[7] 1.755 
*END
