*SPEF "ieee 1481-1999"
*DESIGN "ffra_wrapper"
*DATE "11:11:11 Fri 11 11, 1111"
*VENDOR "OpenRCX"
*PROGRAM "Parallel Extraction"
*VERSION "1.0"
*DESIGN_FLOW "NAME_SCOPE LOCAL" "PIN_CAP NONE"
*DIVIDER /
*DELIMITER :
*BUS_DELIMITER []
*T_UNIT 1 NS
*C_UNIT 1 PF
*R_UNIT 1 OHM
*L_UNIT 1 HENRY

*NAME_MAP
*1 io_in[0]
*2 io_in[10]
*3 io_in[11]
*4 io_in[12]
*5 io_in[13]
*6 io_in[14]
*7 io_in[15]
*8 io_in[16]
*9 io_in[17]
*10 io_in[18]
*11 io_in[19]
*12 io_in[1]
*13 io_in[20]
*14 io_in[21]
*15 io_in[22]
*16 io_in[23]
*17 io_in[24]
*18 io_in[25]
*19 io_in[26]
*20 io_in[27]
*21 io_in[28]
*22 io_in[29]
*23 io_in[2]
*24 io_in[30]
*25 io_in[31]
*26 io_in[32]
*27 io_in[33]
*28 io_in[34]
*29 io_in[35]
*30 io_in[36]
*31 io_in[37]
*32 io_in[3]
*33 io_in[4]
*34 io_in[5]
*35 io_in[6]
*36 io_in[7]
*37 io_in[8]
*38 io_in[9]
*39 io_oeb[0]
*40 io_oeb[10]
*41 io_oeb[11]
*42 io_oeb[12]
*43 io_oeb[13]
*44 io_oeb[14]
*45 io_oeb[15]
*46 io_oeb[16]
*47 io_oeb[17]
*48 io_oeb[18]
*49 io_oeb[19]
*50 io_oeb[1]
*51 io_oeb[20]
*52 io_oeb[21]
*53 io_oeb[22]
*54 io_oeb[23]
*55 io_oeb[24]
*56 io_oeb[25]
*57 io_oeb[26]
*58 io_oeb[27]
*59 io_oeb[28]
*60 io_oeb[29]
*61 io_oeb[2]
*62 io_oeb[30]
*63 io_oeb[31]
*64 io_oeb[32]
*65 io_oeb[33]
*66 io_oeb[34]
*67 io_oeb[35]
*68 io_oeb[36]
*69 io_oeb[37]
*70 io_oeb[3]
*71 io_oeb[4]
*72 io_oeb[5]
*73 io_oeb[6]
*74 io_oeb[7]
*75 io_oeb[8]
*76 io_oeb[9]
*77 io_out[0]
*78 io_out[10]
*79 io_out[11]
*80 io_out[12]
*81 io_out[13]
*82 io_out[14]
*83 io_out[15]
*84 io_out[16]
*85 io_out[17]
*86 io_out[18]
*87 io_out[19]
*88 io_out[1]
*89 io_out[20]
*90 io_out[21]
*91 io_out[22]
*92 io_out[23]
*93 io_out[24]
*94 io_out[25]
*95 io_out[26]
*96 io_out[27]
*97 io_out[28]
*98 io_out[29]
*99 io_out[2]
*100 io_out[30]
*101 io_out[31]
*102 io_out[32]
*103 io_out[33]
*104 io_out[34]
*105 io_out[35]
*106 io_out[36]
*107 io_out[37]
*108 io_out[3]
*109 io_out[4]
*110 io_out[5]
*111 io_out[6]
*112 io_out[7]
*113 io_out[8]
*114 io_out[9]
*115 la_data_in[0]
*116 la_data_in[10]
*117 la_data_in[11]
*118 la_data_in[12]
*119 la_data_in[13]
*120 la_data_in[14]
*121 la_data_in[15]
*122 la_data_in[16]
*123 la_data_in[17]
*124 la_data_in[18]
*125 la_data_in[19]
*126 la_data_in[1]
*127 la_data_in[20]
*128 la_data_in[21]
*129 la_data_in[22]
*130 la_data_in[23]
*131 la_data_in[24]
*132 la_data_in[25]
*133 la_data_in[26]
*134 la_data_in[27]
*135 la_data_in[28]
*136 la_data_in[29]
*137 la_data_in[2]
*138 la_data_in[30]
*139 la_data_in[31]
*140 la_data_in[32]
*141 la_data_in[33]
*142 la_data_in[34]
*143 la_data_in[35]
*144 la_data_in[36]
*145 la_data_in[37]
*146 la_data_in[38]
*147 la_data_in[39]
*148 la_data_in[3]
*149 la_data_in[40]
*150 la_data_in[41]
*151 la_data_in[42]
*152 la_data_in[43]
*153 la_data_in[44]
*154 la_data_in[45]
*155 la_data_in[46]
*156 la_data_in[47]
*157 la_data_in[48]
*158 la_data_in[49]
*159 la_data_in[4]
*160 la_data_in[50]
*161 la_data_in[51]
*162 la_data_in[52]
*163 la_data_in[53]
*164 la_data_in[54]
*165 la_data_in[55]
*166 la_data_in[56]
*167 la_data_in[57]
*168 la_data_in[58]
*169 la_data_in[59]
*170 la_data_in[5]
*171 la_data_in[60]
*172 la_data_in[61]
*173 la_data_in[62]
*174 la_data_in[63]
*175 la_data_in[6]
*176 la_data_in[7]
*177 la_data_in[8]
*178 la_data_in[9]
*179 la_data_out[0]
*180 la_data_out[10]
*181 la_data_out[11]
*182 la_data_out[12]
*183 la_data_out[13]
*184 la_data_out[14]
*185 la_data_out[15]
*186 la_data_out[16]
*187 la_data_out[17]
*188 la_data_out[18]
*189 la_data_out[19]
*190 la_data_out[1]
*191 la_data_out[20]
*192 la_data_out[21]
*193 la_data_out[22]
*194 la_data_out[23]
*195 la_data_out[24]
*196 la_data_out[25]
*197 la_data_out[26]
*198 la_data_out[27]
*199 la_data_out[28]
*200 la_data_out[29]
*201 la_data_out[2]
*202 la_data_out[30]
*203 la_data_out[31]
*204 la_data_out[32]
*205 la_data_out[33]
*206 la_data_out[34]
*207 la_data_out[35]
*208 la_data_out[36]
*209 la_data_out[37]
*210 la_data_out[38]
*211 la_data_out[39]
*212 la_data_out[3]
*213 la_data_out[40]
*214 la_data_out[41]
*215 la_data_out[42]
*216 la_data_out[43]
*217 la_data_out[44]
*218 la_data_out[45]
*219 la_data_out[46]
*220 la_data_out[47]
*221 la_data_out[48]
*222 la_data_out[49]
*223 la_data_out[4]
*224 la_data_out[50]
*225 la_data_out[51]
*226 la_data_out[52]
*227 la_data_out[53]
*228 la_data_out[54]
*229 la_data_out[55]
*230 la_data_out[56]
*231 la_data_out[57]
*232 la_data_out[58]
*233 la_data_out[59]
*234 la_data_out[5]
*235 la_data_out[60]
*236 la_data_out[61]
*237 la_data_out[62]
*238 la_data_out[63]
*239 la_data_out[6]
*240 la_data_out[7]
*241 la_data_out[8]
*242 la_data_out[9]
*243 la_oenb[0]
*244 la_oenb[10]
*245 la_oenb[11]
*246 la_oenb[12]
*247 la_oenb[13]
*248 la_oenb[14]
*249 la_oenb[15]
*250 la_oenb[16]
*251 la_oenb[17]
*252 la_oenb[18]
*253 la_oenb[19]
*254 la_oenb[1]
*255 la_oenb[20]
*256 la_oenb[21]
*257 la_oenb[22]
*258 la_oenb[23]
*259 la_oenb[24]
*260 la_oenb[25]
*261 la_oenb[26]
*262 la_oenb[27]
*263 la_oenb[28]
*264 la_oenb[29]
*265 la_oenb[2]
*266 la_oenb[30]
*267 la_oenb[31]
*268 la_oenb[32]
*269 la_oenb[33]
*270 la_oenb[34]
*271 la_oenb[35]
*272 la_oenb[36]
*273 la_oenb[37]
*274 la_oenb[38]
*275 la_oenb[39]
*276 la_oenb[3]
*277 la_oenb[40]
*278 la_oenb[41]
*279 la_oenb[42]
*280 la_oenb[43]
*281 la_oenb[44]
*282 la_oenb[45]
*283 la_oenb[46]
*284 la_oenb[47]
*285 la_oenb[48]
*286 la_oenb[49]
*287 la_oenb[4]
*288 la_oenb[50]
*289 la_oenb[51]
*290 la_oenb[52]
*291 la_oenb[53]
*292 la_oenb[54]
*293 la_oenb[55]
*294 la_oenb[56]
*295 la_oenb[57]
*296 la_oenb[58]
*297 la_oenb[59]
*298 la_oenb[5]
*299 la_oenb[60]
*300 la_oenb[61]
*301 la_oenb[62]
*302 la_oenb[63]
*303 la_oenb[6]
*304 la_oenb[7]
*305 la_oenb[8]
*306 la_oenb[9]
*307 user_clock2
*308 user_irq[0]
*309 user_irq[1]
*310 user_irq[2]
*313 wb_clk_i
*314 wb_rst_i
*315 wbs_ack_o
*316 wbs_adr_i[0]
*317 wbs_adr_i[10]
*318 wbs_adr_i[11]
*319 wbs_adr_i[12]
*320 wbs_adr_i[13]
*321 wbs_adr_i[14]
*322 wbs_adr_i[15]
*323 wbs_adr_i[16]
*324 wbs_adr_i[17]
*325 wbs_adr_i[18]
*326 wbs_adr_i[19]
*327 wbs_adr_i[1]
*328 wbs_adr_i[20]
*329 wbs_adr_i[21]
*330 wbs_adr_i[22]
*331 wbs_adr_i[23]
*332 wbs_adr_i[24]
*333 wbs_adr_i[25]
*334 wbs_adr_i[26]
*335 wbs_adr_i[27]
*336 wbs_adr_i[28]
*337 wbs_adr_i[29]
*338 wbs_adr_i[2]
*339 wbs_adr_i[30]
*340 wbs_adr_i[31]
*341 wbs_adr_i[3]
*342 wbs_adr_i[4]
*343 wbs_adr_i[5]
*344 wbs_adr_i[6]
*345 wbs_adr_i[7]
*346 wbs_adr_i[8]
*347 wbs_adr_i[9]
*348 wbs_cyc_i
*349 wbs_dat_i[0]
*350 wbs_dat_i[10]
*351 wbs_dat_i[11]
*352 wbs_dat_i[12]
*353 wbs_dat_i[13]
*354 wbs_dat_i[14]
*355 wbs_dat_i[15]
*356 wbs_dat_i[16]
*357 wbs_dat_i[17]
*358 wbs_dat_i[18]
*359 wbs_dat_i[19]
*360 wbs_dat_i[1]
*361 wbs_dat_i[20]
*362 wbs_dat_i[21]
*363 wbs_dat_i[22]
*364 wbs_dat_i[23]
*365 wbs_dat_i[24]
*366 wbs_dat_i[25]
*367 wbs_dat_i[26]
*368 wbs_dat_i[27]
*369 wbs_dat_i[28]
*370 wbs_dat_i[29]
*371 wbs_dat_i[2]
*372 wbs_dat_i[30]
*373 wbs_dat_i[31]
*374 wbs_dat_i[3]
*375 wbs_dat_i[4]
*376 wbs_dat_i[5]
*377 wbs_dat_i[6]
*378 wbs_dat_i[7]
*379 wbs_dat_i[8]
*380 wbs_dat_i[9]
*381 wbs_dat_o[0]
*382 wbs_dat_o[10]
*383 wbs_dat_o[11]
*384 wbs_dat_o[12]
*385 wbs_dat_o[13]
*386 wbs_dat_o[14]
*387 wbs_dat_o[15]
*388 wbs_dat_o[16]
*389 wbs_dat_o[17]
*390 wbs_dat_o[18]
*391 wbs_dat_o[19]
*392 wbs_dat_o[1]
*393 wbs_dat_o[20]
*394 wbs_dat_o[21]
*395 wbs_dat_o[22]
*396 wbs_dat_o[23]
*397 wbs_dat_o[24]
*398 wbs_dat_o[25]
*399 wbs_dat_o[26]
*400 wbs_dat_o[27]
*401 wbs_dat_o[28]
*402 wbs_dat_o[29]
*403 wbs_dat_o[2]
*404 wbs_dat_o[30]
*405 wbs_dat_o[31]
*406 wbs_dat_o[3]
*407 wbs_dat_o[4]
*408 wbs_dat_o[5]
*409 wbs_dat_o[6]
*410 wbs_dat_o[7]
*411 wbs_dat_o[8]
*412 wbs_dat_o[9]
*413 wbs_sel_i[0]
*414 wbs_sel_i[1]
*415 wbs_sel_i[2]
*416 wbs_sel_i[3]
*417 wbs_stb_i
*418 wbs_we_i
*419 mprj

*PORTS
io_in[0] I
io_in[10] I
io_in[11] I
io_in[12] I
io_in[13] I
io_in[14] I
io_in[15] I
io_in[16] I
io_in[17] I
io_in[18] I
io_in[19] I
io_in[1] I
io_in[20] I
io_in[21] I
io_in[22] I
io_in[23] I
io_in[24] I
io_in[25] I
io_in[26] I
io_in[27] I
io_in[28] I
io_in[29] I
io_in[2] I
io_in[30] I
io_in[31] I
io_in[32] I
io_in[33] I
io_in[34] I
io_in[35] I
io_in[36] I
io_in[37] I
io_in[3] I
io_in[4] I
io_in[5] I
io_in[6] I
io_in[7] I
io_in[8] I
io_in[9] I
io_oeb[0] O
io_oeb[10] O
io_oeb[11] O
io_oeb[12] O
io_oeb[13] O
io_oeb[14] O
io_oeb[15] O
io_oeb[16] O
io_oeb[17] O
io_oeb[18] O
io_oeb[19] O
io_oeb[1] O
io_oeb[20] O
io_oeb[21] O
io_oeb[22] O
io_oeb[23] O
io_oeb[24] O
io_oeb[25] O
io_oeb[26] O
io_oeb[27] O
io_oeb[28] O
io_oeb[29] O
io_oeb[2] O
io_oeb[30] O
io_oeb[31] O
io_oeb[32] O
io_oeb[33] O
io_oeb[34] O
io_oeb[35] O
io_oeb[36] O
io_oeb[37] O
io_oeb[3] O
io_oeb[4] O
io_oeb[5] O
io_oeb[6] O
io_oeb[7] O
io_oeb[8] O
io_oeb[9] O
io_out[0] O
io_out[10] O
io_out[11] O
io_out[12] O
io_out[13] O
io_out[14] O
io_out[15] O
io_out[16] O
io_out[17] O
io_out[18] O
io_out[19] O
io_out[1] O
io_out[20] O
io_out[21] O
io_out[22] O
io_out[23] O
io_out[24] O
io_out[25] O
io_out[26] O
io_out[27] O
io_out[28] O
io_out[29] O
io_out[2] O
io_out[30] O
io_out[31] O
io_out[32] O
io_out[33] O
io_out[34] O
io_out[35] O
io_out[36] O
io_out[37] O
io_out[3] O
io_out[4] O
io_out[5] O
io_out[6] O
io_out[7] O
io_out[8] O
io_out[9] O
la_data_in[0] I
la_data_in[10] I
la_data_in[11] I
la_data_in[12] I
la_data_in[13] I
la_data_in[14] I
la_data_in[15] I
la_data_in[16] I
la_data_in[17] I
la_data_in[18] I
la_data_in[19] I
la_data_in[1] I
la_data_in[20] I
la_data_in[21] I
la_data_in[22] I
la_data_in[23] I
la_data_in[24] I
la_data_in[25] I
la_data_in[26] I
la_data_in[27] I
la_data_in[28] I
la_data_in[29] I
la_data_in[2] I
la_data_in[30] I
la_data_in[31] I
la_data_in[32] I
la_data_in[33] I
la_data_in[34] I
la_data_in[35] I
la_data_in[36] I
la_data_in[37] I
la_data_in[38] I
la_data_in[39] I
la_data_in[3] I
la_data_in[40] I
la_data_in[41] I
la_data_in[42] I
la_data_in[43] I
la_data_in[44] I
la_data_in[45] I
la_data_in[46] I
la_data_in[47] I
la_data_in[48] I
la_data_in[49] I
la_data_in[4] I
la_data_in[50] I
la_data_in[51] I
la_data_in[52] I
la_data_in[53] I
la_data_in[54] I
la_data_in[55] I
la_data_in[56] I
la_data_in[57] I
la_data_in[58] I
la_data_in[59] I
la_data_in[5] I
la_data_in[60] I
la_data_in[61] I
la_data_in[62] I
la_data_in[63] I
la_data_in[6] I
la_data_in[7] I
la_data_in[8] I
la_data_in[9] I
la_data_out[0] O
la_data_out[10] O
la_data_out[11] O
la_data_out[12] O
la_data_out[13] O
la_data_out[14] O
la_data_out[15] O
la_data_out[16] O
la_data_out[17] O
la_data_out[18] O
la_data_out[19] O
la_data_out[1] O
la_data_out[20] O
la_data_out[21] O
la_data_out[22] O
la_data_out[23] O
la_data_out[24] O
la_data_out[25] O
la_data_out[26] O
la_data_out[27] O
la_data_out[28] O
la_data_out[29] O
la_data_out[2] O
la_data_out[30] O
la_data_out[31] O
la_data_out[32] O
la_data_out[33] O
la_data_out[34] O
la_data_out[35] O
la_data_out[36] O
la_data_out[37] O
la_data_out[38] O
la_data_out[39] O
la_data_out[3] O
la_data_out[40] O
la_data_out[41] O
la_data_out[42] O
la_data_out[43] O
la_data_out[44] O
la_data_out[45] O
la_data_out[46] O
la_data_out[47] O
la_data_out[48] O
la_data_out[49] O
la_data_out[4] O
la_data_out[50] O
la_data_out[51] O
la_data_out[52] O
la_data_out[53] O
la_data_out[54] O
la_data_out[55] O
la_data_out[56] O
la_data_out[57] O
la_data_out[58] O
la_data_out[59] O
la_data_out[5] O
la_data_out[60] O
la_data_out[61] O
la_data_out[62] O
la_data_out[63] O
la_data_out[6] O
la_data_out[7] O
la_data_out[8] O
la_data_out[9] O
la_oenb[0] I
la_oenb[10] I
la_oenb[11] I
la_oenb[12] I
la_oenb[13] I
la_oenb[14] I
la_oenb[15] I
la_oenb[16] I
la_oenb[17] I
la_oenb[18] I
la_oenb[19] I
la_oenb[1] I
la_oenb[20] I
la_oenb[21] I
la_oenb[22] I
la_oenb[23] I
la_oenb[24] I
la_oenb[25] I
la_oenb[26] I
la_oenb[27] I
la_oenb[28] I
la_oenb[29] I
la_oenb[2] I
la_oenb[30] I
la_oenb[31] I
la_oenb[32] I
la_oenb[33] I
la_oenb[34] I
la_oenb[35] I
la_oenb[36] I
la_oenb[37] I
la_oenb[38] I
la_oenb[39] I
la_oenb[3] I
la_oenb[40] I
la_oenb[41] I
la_oenb[42] I
la_oenb[43] I
la_oenb[44] I
la_oenb[45] I
la_oenb[46] I
la_oenb[47] I
la_oenb[48] I
la_oenb[49] I
la_oenb[4] I
la_oenb[50] I
la_oenb[51] I
la_oenb[52] I
la_oenb[53] I
la_oenb[54] I
la_oenb[55] I
la_oenb[56] I
la_oenb[57] I
la_oenb[58] I
la_oenb[59] I
la_oenb[5] I
la_oenb[60] I
la_oenb[61] I
la_oenb[62] I
la_oenb[63] I
la_oenb[6] I
la_oenb[7] I
la_oenb[8] I
la_oenb[9] I
user_clock2 I
user_irq[0] O
user_irq[1] O
user_irq[2] O
wb_clk_i I
wb_rst_i I
wbs_ack_o O
wbs_adr_i[0] I
wbs_adr_i[10] I
wbs_adr_i[11] I
wbs_adr_i[12] I
wbs_adr_i[13] I
wbs_adr_i[14] I
wbs_adr_i[15] I
wbs_adr_i[16] I
wbs_adr_i[17] I
wbs_adr_i[18] I
wbs_adr_i[19] I
wbs_adr_i[1] I
wbs_adr_i[20] I
wbs_adr_i[21] I
wbs_adr_i[22] I
wbs_adr_i[23] I
wbs_adr_i[24] I
wbs_adr_i[25] I
wbs_adr_i[26] I
wbs_adr_i[27] I
wbs_adr_i[28] I
wbs_adr_i[29] I
wbs_adr_i[2] I
wbs_adr_i[30] I
wbs_adr_i[31] I
wbs_adr_i[3] I
wbs_adr_i[4] I
wbs_adr_i[5] I
wbs_adr_i[6] I
wbs_adr_i[7] I
wbs_adr_i[8] I
wbs_adr_i[9] I
wbs_cyc_i I
wbs_dat_i[0] I
wbs_dat_i[10] I
wbs_dat_i[11] I
wbs_dat_i[12] I
wbs_dat_i[13] I
wbs_dat_i[14] I
wbs_dat_i[15] I
wbs_dat_i[16] I
wbs_dat_i[17] I
wbs_dat_i[18] I
wbs_dat_i[19] I
wbs_dat_i[1] I
wbs_dat_i[20] I
wbs_dat_i[21] I
wbs_dat_i[22] I
wbs_dat_i[23] I
wbs_dat_i[24] I
wbs_dat_i[25] I
wbs_dat_i[26] I
wbs_dat_i[27] I
wbs_dat_i[28] I
wbs_dat_i[29] I
wbs_dat_i[2] I
wbs_dat_i[30] I
wbs_dat_i[31] I
wbs_dat_i[3] I
wbs_dat_i[4] I
wbs_dat_i[5] I
wbs_dat_i[6] I
wbs_dat_i[7] I
wbs_dat_i[8] I
wbs_dat_i[9] I
wbs_dat_o[0] O
wbs_dat_o[10] O
wbs_dat_o[11] O
wbs_dat_o[12] O
wbs_dat_o[13] O
wbs_dat_o[14] O
wbs_dat_o[15] O
wbs_dat_o[16] O
wbs_dat_o[17] O
wbs_dat_o[18] O
wbs_dat_o[19] O
wbs_dat_o[1] O
wbs_dat_o[20] O
wbs_dat_o[21] O
wbs_dat_o[22] O
wbs_dat_o[23] O
wbs_dat_o[24] O
wbs_dat_o[25] O
wbs_dat_o[26] O
wbs_dat_o[27] O
wbs_dat_o[28] O
wbs_dat_o[29] O
wbs_dat_o[2] O
wbs_dat_o[30] O
wbs_dat_o[31] O
wbs_dat_o[3] O
wbs_dat_o[4] O
wbs_dat_o[5] O
wbs_dat_o[6] O
wbs_dat_o[7] O
wbs_dat_o[8] O
wbs_dat_o[9] O
wbs_sel_i[0] I
wbs_sel_i[1] I
wbs_sel_i[2] I
wbs_sel_i[3] I
wbs_stb_i I
wbs_we_i I

*D_NET *1 0.216378
*CONN
*P io_in[0] I
*I *419:a[0] I *D ffra
*CAP
1 io_in[0] 0.00468274
2 *419:a[0] 0.00436252
3 *1:12 0.074707
4 *1:11 0.0703444
5 *1:9 0.0287995
6 *1:7 0.0334823
*RES
1 io_in[0] *1:7 37.305 
2 *1:7 *1:9 225.54 
3 *1:9 *1:11 4.5 
4 *1:11 *1:12 542.79 
5 *1:12 *419:a[0] 35.415 
*END

*D_NET *2 0.279238
*CONN
*P io_in[10] I
*I *419:b[2] I *D ffra
*CAP
1 io_in[10] 0.00469989
2 *419:b[2] 0.000363176
3 *2:18 0.00539095
4 *2:17 0.00502777
5 *2:15 0.0196272
6 *2:14 0.0196272
7 *2:12 0.012737
8 *2:11 0.012737
9 *2:9 0.0317283
10 *2:7 0.0364282
11 *2:15 *38:11 0.11941
12 *2:18 *419:b[0] 2.36939e-05
13 *2:18 *419:b[1] 0.0114378
*RES
1 io_in[10] *2:7 37.305 
2 *2:7 *2:9 247.14 
3 *2:9 *2:11 4.5 
4 *2:11 *2:12 97.65 
5 *2:12 *2:14 4.5 
6 *2:14 *2:15 298.89 
7 *2:15 *2:17 4.5 
8 *2:17 *2:18 53.19 
9 *2:18 *419:b[2] 7.425 
*END

*D_NET *3 0.206418
*CONN
*P io_in[11] I
*I *419:b[3] I *D ffra
*CAP
1 io_in[11] 0.0003252
2 *419:b[3] 0.000371762
3 *3:22 0.009323
4 *3:21 0.00895123
5 *3:19 0.0381626
6 *3:18 0.0403972
7 *3:13 0.0470696
8 *3:11 0.0451601
9 *3:22 *419:b[6] 0.0110054
10 *3:22 *4:16 0.00565203
*RES
1 io_in[11] *3:11 3.195 
2 *3:11 *3:13 283.77 
3 *3:13 *3:18 26.19 
4 *3:18 *3:19 298.89 
5 *3:19 *3:21 4.5 
6 *3:21 *3:22 99.81 
7 *3:22 *419:b[3] 7.425 
*END

*D_NET *4 0.201864
*CONN
*P io_in[12] I
*I *419:b[4] I *D ffra
*CAP
1 io_in[12] 0.000167227
2 *419:b[4] 0.000380337
3 *4:16 0.00877241
4 *4:15 0.00839208
5 *4:13 0.0743333
6 *4:11 0.0745006
7 *4:16 *419:b[6] 0.00424525
8 *4:16 *419:b[7] 0.00381863
9 *4:16 *5:14 0.0216026
10 *3:22 *4:16 0.00565203
*RES
1 io_in[12] *4:11 2.115 
2 *4:11 *4:13 582.03 
3 *4:13 *4:15 4.5 
4 *4:15 *4:16 123.57 
5 *4:16 *419:b[4] 6.885 
*END

*D_NET *5 0.29547
*CONN
*P io_in[13] I
*I *419:b[5] I *D ffra
*CAP
1 io_in[13] 0.00100991
2 *419:b[5] 0.000285531
3 *5:14 0.00390033
4 *5:13 0.0036148
5 *5:11 0.05334
6 *5:10 0.05334
7 *5:8 0.0142273
8 *5:7 0.0152372
9 *5:11 *6:19 0.128912
10 *5:11 *79:14 0
11 *4:16 *5:14 0.0216026
*RES
1 io_in[13] *5:7 12.825 
2 *5:7 *5:8 109.53 
3 *5:8 *5:10 4.5 
4 *5:10 *5:11 573.57 
5 *5:11 *5:13 4.5 
6 *5:13 *5:14 54.99 
7 *5:14 *419:b[5] 6.705 
*END

*D_NET *6 0.3187
*CONN
*P io_in[14] I
*I *419:b[6] I *D ffra
*CAP
1 io_in[14] 0.000282333
2 *419:b[6] 0.000936047
3 *6:19 0.0222589
4 *6:18 0.0213228
5 *6:16 0.0223801
6 *6:15 0.0223801
7 *6:13 0.0409259
8 *6:11 0.0412083
9 *419:b[6] *419:b[7] 0.00284295
10 *6:19 *79:14 0
11 *3:22 *419:b[6] 0.0110054
12 *4:16 *419:b[6] 0.00424525
13 *5:11 *6:19 0.128912
*RES
1 io_in[14] *6:11 2.655 
2 *6:11 *6:13 259.47 
3 *6:13 *6:15 4.5 
4 *6:15 *6:16 171.45 
5 *6:16 *6:18 4.5 
6 *6:18 *6:19 323.01 
7 *6:19 *419:b[6] 42.975 
*END

*D_NET *7 0.210739
*CONN
*P io_in[15] I
*I *419:b[7] I *D ffra
*CAP
1 io_in[15] 0.0290968
2 *419:b[7] 0.000558248
3 *7:8 0.0729421
4 *7:7 0.0723839
5 *7:5 0.0290968
6 *7:8 *79:14 0
7 *7:8 *88:7 0
8 *7:8 *88:9 0
9 *419:b[6] *419:b[7] 0.00284295
10 *4:16 *419:b[7] 0.00381863
*RES
1 io_in[15] *7:5 224.325 
2 *7:5 *7:7 4.5 
3 *7:7 *7:8 564.57 
4 *7:8 *419:b[7] 21.375 
*END

*D_NET *8 0.221195
*CONN
*P io_in[16] I
*I *419:ci[0] I *D ffra
*CAP
1 io_in[16] 0.000247817
2 *419:ci[0] 0.00123258
3 *8:16 0.0442388
4 *8:15 0.0430062
5 *8:13 0.0536915
6 *8:11 0.0539393
7 *419:ci[0] *11:91 0.00218359
8 *8:16 *9:14 4.06962e-05
9 *8:16 *10:14 0.0132907
10 *8:16 *11:91 0.00654837
11 *8:16 *13:14 0.00277515
*RES
1 io_in[16] *8:11 2.655 
2 *8:11 *8:13 413.37 
3 *8:13 *8:15 4.5 
4 *8:15 *8:16 397.08 
5 *8:16 *419:ci[0] 21.69 
*END

*D_NET *9 0.276891
*CONN
*P io_in[17] I
*I *419:ci[1] I *D ffra
*CAP
1 io_in[17] 0.00105188
2 *419:ci[1] 7.16651e-05
3 *9:14 0.00696773
4 *9:13 0.00689607
5 *9:11 0.0531059
6 *9:10 0.0531059
7 *9:8 0.00689261
8 *9:7 0.00794449
9 *9:8 *83:14 0.00411107
10 *9:11 *10:11 0
11 *9:14 *10:14 0.0864019
12 *9:14 *13:14 0.00301956
13 *9:14 *16:16 0.0383942
14 *9:14 *19:15 0.00888758
15 *8:16 *9:14 4.06962e-05
*RES
1 io_in[17] *9:7 12.645 
2 *9:7 *9:8 58.77 
3 *9:8 *9:10 4.5 
4 *9:10 *9:11 406.35 
5 *9:11 *9:13 4.5 
6 *9:13 *9:14 234.27 
7 *9:14 *419:ci[1] 4.905 
*END

*D_NET *10 0.245253
*CONN
*P io_in[18] I
*I *419:ci[2] I *D ffra
*CAP
1 io_in[18] 0.00107486
2 *419:ci[2] 0.000142783
3 *10:14 0.0065894
4 *10:13 0.00644661
5 *10:11 0.0530479
6 *10:10 0.0530479
7 *10:8 0.00577559
8 *10:7 0.00685045
9 *419:ci[2] *11:91 3.12451e-05
10 *10:14 *13:14 0.0125536
11 *8:16 *10:14 0.0132907
12 *9:11 *10:11 0
13 *9:14 *10:14 0.0864019
*RES
1 io_in[18] *10:7 12.825 
2 *10:7 *10:8 46.17 
3 *10:8 *10:10 4.5 
4 *10:10 *10:11 405.99 
5 *10:11 *10:13 4.5 
6 *10:13 *10:14 216.27 
7 *10:14 *419:ci[2] 5.535 
*END

*D_NET *11 0.218858
*CONN
*P io_in[19] I
*I *419:ci[3] I *D ffra
*CAP
1 io_in[19] 0.00508738
2 *419:ci[3] 0.00148794
3 *11:91 0.00321767
4 *11:84 0.00547171
5 *11:79 0.00908894
6 *11:78 0.00546532
7 *11:73 0.00856224
8 *11:72 0.00844388
9 *11:70 0.00462556
10 *11:61 0.0103627
11 *11:54 0.00890554
12 *11:48 0.00736466
13 *11:42 0.008156
14 *11:31 0.0122059
15 *11:30 0.011055
16 *11:24 0.00819029
17 *11:21 0.00827166
18 *11:15 0.0079776
19 *419:ci[3] *20:19 0.00608703
20 *11:73 *13:11 0.0503479
21 *11:79 *13:11 0.0126909
22 *11:84 *13:14 0.00266492
23 *11:91 *13:14 0.00436457
24 *419:ci[0] *11:91 0.00218359
25 *419:ci[2] *11:91 3.12451e-05
26 *8:16 *11:91 0.00654837
*RES
1 io_in[19] *11:15 44.685 
2 *11:15 *11:21 30.78 
3 *11:21 *11:24 46.53 
4 *11:24 *11:30 30.78 
5 *11:30 *11:31 63.63 
6 *11:31 *11:42 47.79 
7 *11:42 *11:48 41.22 
8 *11:48 *11:54 34.02 
9 *11:54 *11:61 49.59 
10 *11:61 *11:70 49.23 
11 *11:70 *11:72 4.5 
12 *11:72 *11:73 128.25 
13 *11:73 *11:78 9.63 
14 *11:78 *11:79 71.55 
15 *11:79 *11:84 42.57 
16 *11:84 *11:91 48.51 
17 *11:91 *419:ci[3] 22.995 
*END

*D_NET *12 0.220418
*CONN
*P io_in[1] I
*I *419:a[1] I *D ffra
*CAP
1 io_in[1] 0.000350475
2 *419:a[1] 0.00143813
3 *12:19 0.00864805
4 *12:18 0.00720992
5 *12:16 0.0654834
6 *12:15 0.0654834
7 *12:13 0.0357273
8 *12:11 0.0360778
*RES
1 io_in[1] *12:11 3.195 
2 *12:11 *12:13 227.07 
3 *12:13 *12:15 4.5 
4 *12:15 *12:16 504.99 
5 *12:16 *12:18 4.5 
6 *12:18 *12:19 55.44 
7 *12:19 *419:a[1] 10.215 
*END

*D_NET *13 0.19498
*CONN
*P io_in[20] I
*I *419:ci[4] I *D ffra
*CAP
1 io_in[20] 0.00491026
2 *419:ci[4] 0
3 *13:14 0.00400706
4 *13:13 0.00400706
5 *13:11 0.0404304
6 *13:10 0.0453407
7 *13:14 *419:clk 0.000450805
8 *13:14 *419:rst 0.000419169
9 *13:14 *16:16 0.00699837
10 *8:16 *13:14 0.00277515
11 *9:14 *13:14 0.00301956
12 *10:14 *13:14 0.0125536
13 *11:73 *13:11 0.0503479
14 *11:79 *13:11 0.0126909
15 *11:84 *13:14 0.00266492
16 *11:91 *13:14 0.00436457
*RES
1 io_in[20] *13:10 47.295 
2 *13:10 *13:11 405.81 
3 *13:11 *13:13 4.5 
4 *13:13 *13:14 104.31 
5 *13:14 *419:ci[4] 4.5 
*END

*D_NET *14 0.252072
*CONN
*P io_in[21] I
*I *419:ci[5] I *D ffra
*CAP
1 io_in[21] 0.00272264
2 *419:ci[5] 0.000667084
3 *14:14 0.00150689
4 *14:13 0.000839804
5 *14:11 0.0531638
6 *14:10 0.0558864
7 *14:10 *15:8 0.0106024
8 *14:14 *20:19 0.00798343
9 *14:14 *21:11 0.0679912
10 *14:14 *22:19 0.050708
*RES
1 io_in[21] *14:10 43.515 
2 *14:10 *14:11 409.95 
3 *14:11 *14:13 4.5 
4 *14:13 *14:14 170.19 
5 *14:14 *419:ci[5] 8.505 
*END

*D_NET *15 0.237316
*CONN
*P io_in[22] I
*I *419:ci[6] I *D ffra
*CAP
1 io_in[22] 0.00107486
2 *419:ci[6] 0.000274445
3 *15:14 0.00993228
4 *15:13 0.00965783
5 *15:11 0.0527642
6 *15:10 0.0527642
7 *15:8 0.0205055
8 *15:7 0.0215804
9 *15:14 *17:19 0.0581596
10 *14:10 *15:8 0.0106024
*RES
1 io_in[22] *15:7 12.825 
2 *15:7 *15:8 173.25 
3 *15:8 *15:10 4.5 
4 *15:10 *15:11 407.07 
5 *15:11 *15:13 4.5 
6 *15:13 *15:14 145.71 
7 *15:14 *419:ci[6] 5.805 
*END

*D_NET *16 0.346396
*CONN
*P io_in[23] I
*I *419:ci[7] I *D ffra
*CAP
1 io_in[23] 0.000345489
2 *419:ci[7] 0.000118612
3 *16:16 0.0262882
4 *16:15 0.0261696
5 *16:13 0.0537173
6 *16:11 0.0540628
7 *16:16 *17:19 0.000345727
8 *16:16 *18:19 0.000934259
9 *16:16 *19:15 0.139022
10 *9:14 *16:16 0.0383942
11 *13:14 *16:16 0.00699837
*RES
1 io_in[23] *16:11 3.195 
2 *16:11 *16:13 414.63 
3 *16:13 *16:15 4.5 
4 *16:15 *16:16 443.79 
5 *16:16 *419:ci[7] 5.085 
*END

*D_NET *17 0.385998
*CONN
*P io_in[24] I
*I *419:ci[8] I *D ffra
*CAP
1 io_in[24] 0.000177869
2 *419:ci[8] 0.000219496
3 *17:19 0.0157707
4 *17:18 0.0155512
5 *17:16 0.0518908
6 *17:15 0.0518908
7 *17:13 0.0221399
8 *17:11 0.0223178
9 *17:19 *18:19 0.147534
10 *15:14 *17:19 0.0581596
11 *16:16 *17:19 0.000345727
*RES
1 io_in[24] *17:11 1.935 
2 *17:11 *17:13 173.61 
3 *17:13 *17:15 4.5 
4 *17:15 *17:16 400.23 
5 *17:16 *17:18 4.5 
6 *17:18 *17:19 372.15 
7 *17:19 *419:ci[8] 5.625 
*END

*D_NET *18 0.437288
*CONN
*P io_in[25] I
*I *419:ci[9] I *D ffra
*CAP
1 io_in[25] 0.000113196
2 *419:ci[9] 0.000180537
3 *18:19 0.00283314
4 *18:18 0.00265261
5 *18:16 0.0431083
6 *18:15 0.0431083
7 *18:13 0.0224714
8 *18:11 0.0225846
9 *18:19 *19:15 0.151767
10 *16:16 *18:19 0.000934259
11 *17:19 *18:19 0.147534
*RES
1 io_in[25] *18:11 1.395 
2 *18:11 *18:13 176.31 
3 *18:13 *18:15 4.5 
4 *18:15 *18:16 332.55 
5 *18:16 *18:18 4.5 
6 *18:18 *18:19 385.47 
7 *18:19 *419:ci[9] 5.445 
*END

*D_NET *19 0.420592
*CONN
*P io_in[26] I
*I *419:ci[10] I *D ffra
*CAP
1 io_in[26] 0.00181095
2 *419:ci[10] 0.000141579
3 *19:15 0.00283227
4 *19:14 0.00269069
5 *19:12 0.0343312
6 *19:11 0.0343312
7 *19:9 0.0214832
8 *19:7 0.0232942
9 *9:14 *19:15 0.00888758
10 *16:16 *19:15 0.139022
11 *18:19 *19:15 0.151767
*RES
1 io_in[26] *19:7 13.185 
2 *19:7 *19:9 168.84 
3 *19:9 *19:11 4.5 
4 *19:11 *19:12 264.87 
5 *19:12 *19:14 4.5 
6 *19:14 *19:15 396.09 
7 *19:15 *419:ci[10] 5.265 
*END

*D_NET *20 0.277896
*CONN
*P io_in[27] I
*I *419:ci[11] I *D ffra
*CAP
1 io_in[27] 0.000370768
2 *419:ci[11] 0.000509283
3 *20:19 0.0284844
4 *20:18 0.0279752
5 *20:16 0.0256425
6 *20:15 0.0256425
7 *20:13 0.0240328
8 *20:11 0.0244036
9 *20:19 *21:11 0.0176602
10 *20:19 *22:19 0.0891043
11 *419:ci[3] *20:19 0.00608703
12 *14:14 *20:19 0.00798343
*RES
1 io_in[27] *20:11 3.015 
2 *20:11 *20:13 187.11 
3 *20:13 *20:15 4.5 
4 *20:15 *20:16 197.55 
5 *20:16 *20:18 4.5 
6 *20:18 *20:19 406.71 
7 *20:19 *419:ci[11] 8.145 
*END

*D_NET *21 0.249977
*CONN
*P io_in[28] I
*I *419:ci[12] I *D ffra
*CAP
1 io_in[28] 0.00119322
2 *419:ci[12] 0.00059419
3 *21:11 0.0534145
4 *21:10 0.0528203
5 *21:8 0.0171605
6 *21:7 0.0183537
7 *21:11 *22:19 0.0207893
8 *14:14 *21:11 0.0679912
9 *20:19 *21:11 0.0176602
*RES
1 io_in[28] *21:7 13.365 
2 *21:7 *21:8 132.39 
3 *21:8 *21:10 4.5 
4 *21:10 *21:11 600.93 
5 *21:11 *419:ci[12] 8.685 
*END

*D_NET *22 0.282265
*CONN
*P io_in[29] I
*I *419:ci[13] I *D ffra
*CAP
1 io_in[29] 0.000177869
2 *419:ci[13] 0.000532265
3 *22:19 0.00464536
4 *22:18 0.00411309
5 *22:16 0.00822709
6 *22:15 0.00822709
7 *22:13 0.0474078
8 *22:11 0.0475856
9 *22:19 *419:ci[14] 0.000747649
10 *14:14 *22:19 0.050708
11 *20:19 *22:19 0.0891043
12 *21:11 *22:19 0.0207893
*RES
1 io_in[29] *22:11 1.935 
2 *22:11 *22:13 370.71 
3 *22:13 *22:15 4.5 
4 *22:15 *22:16 62.73 
5 *22:16 *22:18 4.5 
6 *22:18 *22:19 255.15 
7 *22:19 *419:ci[13] 8.325 
*END

*D_NET *23 0.195717
*CONN
*P io_in[2] I
*I *419:a[2] I *D ffra
*CAP
1 io_in[2] 0.000167227
2 *419:a[2] 0.00139501
3 *23:19 0.00892645
4 *23:18 0.00753144
5 *23:16 0.0602345
6 *23:15 0.0602345
7 *23:13 0.0285302
8 *23:11 0.0286974
*RES
1 io_in[2] *23:11 2.115 
2 *23:11 *23:13 224.37 
3 *23:13 *23:15 4.5 
4 *23:15 *23:16 464.49 
5 *23:16 *23:18 4.5 
6 *23:18 *23:19 58.14 
7 *23:19 *419:a[2] 9.855 
*END

*D_NET *24 0.166877
*CONN
*P io_in[30] I
*I *419:ci[14] I *D ffra
*CAP
1 io_in[30] 0.000127055
2 *419:ci[14] 0.0044685
3 *24:13 0.0829378
4 *24:11 0.0785963
5 *24:13 *37:11 0
6 *22:19 *419:ci[14] 0.000747649
*RES
1 io_in[30] *24:11 1.395 
2 *24:11 *24:13 615.15 
3 *24:13 *419:ci[14] 49.005 
*END

*D_NET *25 0.18795
*CONN
*P io_in[31] I
*I *419:ci[15] I *D ffra
*CAP
1 io_in[31] 0.00181095
2 *419:ci[15] 0.000281523
3 *25:18 0.0065642
4 *25:17 0.00628268
5 *25:15 0.0615643
6 *25:14 0.065257
7 *25:9 0.0240357
8 *25:7 0.022154
*RES
1 io_in[31] *25:7 13.185 
2 *25:7 *25:9 160.74 
3 *25:9 *25:14 37.35 
4 *25:14 *25:15 482.13 
5 *25:15 *25:17 4.5 
6 *25:17 *25:18 47.97 
7 *25:18 *419:ci[15] 2.205 
*END

*D_NET *32 0.184829
*CONN
*P io_in[3] I
*I *419:a[3] I *D ffra
*CAP
1 io_in[3] 0.0277745
2 *419:a[3] 0.000201711
3 *32:11 0.00963778
4 *32:10 0.00943607
5 *32:8 0.055002
6 *32:7 0.055002
7 *32:5 0.0277745
*RES
1 io_in[3] *32:5 218.925 
2 *32:5 *32:7 4.5 
3 *32:7 *32:8 423.99 
4 *32:8 *32:10 4.5 
5 *32:10 *32:11 71.73 
6 *32:11 *419:a[3] 1.125 
*END

*D_NET *33 0.175526
*CONN
*P io_in[4] I
*I *419:a[4] I *D ffra
*CAP
1 io_in[4] 0.000276978
2 *419:a[4] 0.000154461
3 *33:19 0.00989674
4 *33:18 0.00974228
5 *33:16 0.0501154
6 *33:15 0.0501154
7 *33:13 0.0274737
8 *33:11 0.0277506
*RES
1 io_in[4] *33:11 2.655 
2 *33:11 *33:13 216.27 
3 *33:13 *33:15 4.5 
4 *33:15 *33:16 386.19 
5 *33:16 *33:18 4.5 
6 *33:18 *33:19 74.43 
7 *33:19 *419:a[4] 0.765 
*END

*D_NET *34 0.164555
*CONN
*P io_in[5] I
*I *419:a[5] I *D ffra
*CAP
1 io_in[5] 0.00468274
2 *419:a[5] 6.67707e-05
3 *34:15 0.0101496
4 *34:14 0.0100828
5 *34:12 0.0448896
6 *34:11 0.0448896
7 *34:9 0.0225557
8 *34:7 0.0272385
*RES
1 io_in[5] *34:7 37.305 
2 *34:7 *34:9 176.94 
3 *34:9 *34:11 4.5 
4 *34:11 *34:12 345.69 
5 *34:12 *34:14 4.5 
6 *34:14 *34:15 77.13 
7 *34:15 *419:a[5] 0.405 
*END

*D_NET *35 0.172485
*CONN
*P io_in[6] I
*I *419:a[6] I *D ffra
*CAP
1 io_in[6] 0.000337838
2 *419:a[6] 0.0127426
3 *35:18 0.0127426
4 *35:16 0.0399568
5 *35:15 0.0399568
6 *35:13 0.0332054
7 *35:11 0.0335433
*RES
1 io_in[6] *35:11 3.195 
2 *35:11 *35:13 210.87 
3 *35:13 *35:15 4.5 
4 *35:15 *35:16 307.89 
5 *35:16 *35:18 4.5 
6 *35:18 *419:a[6] 79.785 
*END

*D_NET *36 0.144364
*CONN
*P io_in[7] I
*I *419:a[7] I *D ffra
*CAP
1 io_in[7] 0.000167227
2 *419:a[7] 0.00151498
3 *36:19 0.0201103
4 *36:18 0.0185953
5 *36:16 0.0343828
6 *36:15 0.0343828
7 *36:13 0.0175216
8 *36:11 0.0176888
*RES
1 io_in[7] *36:11 2.115 
2 *36:11 *36:13 137.97 
3 *36:13 *36:15 4.5 
4 *36:15 *36:16 264.69 
5 *36:16 *36:18 4.5 
6 *36:18 *36:19 144.54 
7 *36:19 *419:a[7] 10.755 
*END

*D_NET *37 0.164963
*CONN
*P io_in[8] I
*I *419:b[0] I *D ffra
*CAP
1 io_in[8] 0.0560211
2 *419:b[0] 0.00281574
3 *37:11 0.0234772
4 *37:10 0.022632
5 *37:5 0.0579917
6 *419:b[0] *419:b[1] 0.00200129
7 *2:18 *419:b[0] 2.36939e-05
8 *24:13 *37:11 0
*RES
1 io_in[8] *37:5 437.625 
2 *37:5 *37:10 23.85 
3 *37:10 *37:11 144.63 
4 *37:11 *419:b[0] 31.455 
*END

*D_NET *38 0.257631
*CONN
*P io_in[9] I
*I *419:b[1] I *D ffra
*CAP
1 io_in[9] 0.00548278
2 *419:b[1] 0.00189824
3 *38:11 0.056908
4 *38:10 0.0550097
5 *38:8 0.00548278
6 *419:b[0] *419:b[1] 0.00200129
7 *2:15 *38:11 0.11941
8 *2:18 *419:b[1] 0.0114378
*RES
1 io_in[9] *38:8 47.115 
2 *38:8 *38:10 4.5 
3 *38:10 *38:11 574.11 
4 *38:11 *419:b[1] 40.815 
*END

*D_NET *77 0.378863
*CONN
*P io_out[0] O
*I *419:o[0] O *D ffra
*CAP
1 io_out[0] 0.00463962
2 *419:o[0] 0.000657663
3 *77:14 0.0337787
4 *77:13 0.0291391
5 *77:11 0.0920032
6 *77:10 0.0920032
7 *77:8 0.0282688
8 *77:7 0.0289265
9 *77:8 *112:8 0.0694464
*RES
1 *419:o[0] *77:7 8.505 
2 *77:7 *77:8 305.37 
3 *77:8 *77:10 4.5 
4 *77:10 *77:11 707.49 
5 *77:11 *77:13 4.5 
6 *77:13 *77:14 228.24 
7 *77:14 io_out[0] 36.945 
*END

*D_NET *78 0.148035
*CONN
*P io_out[10] O
*I *419:o[10] O *D ffra
*CAP
1 io_out[10] 0.00465678
2 *419:o[10] 0
3 *78:11 0.0356186
4 *78:10 0.0309618
5 *78:8 0.00866822
6 *78:7 0.00866822
7 *78:5 0.00739813
8 *78:4 0.00739813
9 *78:5 *110:5 0.0446656
*RES
1 *419:o[10] *78:4 4.5 
2 *78:4 *78:5 111.87 
3 *78:5 *78:7 4.5 
4 *78:7 *78:8 65.43 
5 *78:8 *78:10 4.5 
6 *78:10 *78:11 241.74 
7 *78:11 io_out[10] 36.945 
*END

*D_NET *79 0.124949
*CONN
*P io_out[11] O
*I *419:o[11] O *D ffra
*CAP
1 io_out[11] 0.000253458
2 *419:o[11] 0.000728709
3 *79:14 0.035371
4 *79:13 0.0364405
5 *79:8 0.00787102
6 *79:7 0.00727685
7 *79:8 *112:8 0.00156073
8 *79:8 *114:8 0.0354466
9 *79:13 *110:8 0
10 *5:11 *79:14 0
11 *6:19 *79:14 0
12 *7:8 *79:14 0
*RES
1 *419:o[11] *79:7 9.045 
2 *79:7 *79:8 97.47 
3 *79:8 *79:13 17.73 
4 *79:13 *79:14 274.77 
5 *79:14 io_out[11] 2.835 
*END

*D_NET *80 0.13393
*CONN
*P io_out[12] O
*I *419:o[12] O *D ffra
*CAP
1 io_out[12] 0.000146231