*SPEF "ieee 1481-1999"
*DESIGN "user_project_wrapper"
*DATE "11:11:11 Fri 11 11, 1111"
*VENDOR "OpenRCX"
*PROGRAM "Parallel Extraction"
*VERSION "1.0"
*DESIGN_FLOW "NAME_SCOPE LOCAL" "PIN_CAP NONE"
*DIVIDER /
*DELIMITER :
*BUS_DELIMITER []
*T_UNIT 1 NS
*C_UNIT 1 PF
*R_UNIT 1 OHM
*L_UNIT 1 HENRY

*NAME_MAP
*1 io_in[0]
*2 io_in[10]
*3 io_in[11]
*4 io_in[12]
*5 io_in[13]
*6 io_in[14]
*7 io_in[15]
*8 io_in[16]
*9 io_in[17]
*10 io_in[18]
*11 io_in[19]
*12 io_in[1]
*13 io_in[20]
*14 io_in[21]
*15 io_in[22]
*16 io_in[23]
*17 io_in[24]
*18 io_in[25]
*19 io_in[26]
*20 io_in[27]
*21 io_in[28]
*22 io_in[29]
*23 io_in[2]
*24 io_in[30]
*25 io_in[31]
*26 io_in[32]
*27 io_in[33]
*28 io_in[34]
*29 io_in[35]
*30 io_in[36]
*31 io_in[37]
*32 io_in[3]
*33 io_in[4]
*34 io_in[5]
*35 io_in[6]
*36 io_in[7]
*37 io_in[8]
*38 io_in[9]
*39 io_oeb[0]
*40 io_oeb[10]
*41 io_oeb[11]
*42 io_oeb[12]
*43 io_oeb[13]
*44 io_oeb[14]
*45 io_oeb[15]
*46 io_oeb[16]
*47 io_oeb[17]
*48 io_oeb[18]
*49 io_oeb[19]
*50 io_oeb[1]
*51 io_oeb[20]
*52 io_oeb[21]
*53 io_oeb[22]
*54 io_oeb[23]
*55 io_oeb[24]
*56 io_oeb[25]
*57 io_oeb[26]
*58 io_oeb[27]
*59 io_oeb[28]
*60 io_oeb[29]
*61 io_oeb[2]
*62 io_oeb[30]
*63 io_oeb[31]
*64 io_oeb[32]
*65 io_oeb[33]
*66 io_oeb[34]
*67 io_oeb[35]
*68 io_oeb[36]
*69 io_oeb[37]
*70 io_oeb[3]
*71 io_oeb[4]
*72 io_oeb[5]
*73 io_oeb[6]
*74 io_oeb[7]
*75 io_oeb[8]
*76 io_oeb[9]
*77 io_out[0]
*78 io_out[10]
*79 io_out[11]
*80 io_out[12]
*81 io_out[13]
*82 io_out[14]
*83 io_out[15]
*84 io_out[16]
*85 io_out[17]
*86 io_out[18]
*87 io_out[19]
*88 io_out[1]
*89 io_out[20]
*90 io_out[21]
*91 io_out[22]
*92 io_out[23]
*93 io_out[24]
*94 io_out[25]
*95 io_out[26]
*96 io_out[27]
*97 io_out[28]
*98 io_out[29]
*99 io_out[2]
*100 io_out[30]
*101 io_out[31]
*102 io_out[32]
*103 io_out[33]
*104 io_out[34]
*105 io_out[35]
*106 io_out[36]
*107 io_out[37]
*108 io_out[3]
*109 io_out[4]
*110 io_out[5]
*111 io_out[6]
*112 io_out[7]
*113 io_out[8]
*114 io_out[9]
*115 la_data_in[0]
*116 la_data_in[10]
*117 la_data_in[11]
*118 la_data_in[12]
*119 la_data_in[13]
*120 la_data_in[14]
*121 la_data_in[15]
*122 la_data_in[16]
*123 la_data_in[17]
*124 la_data_in[18]
*125 la_data_in[19]
*126 la_data_in[1]
*127 la_data_in[20]
*128 la_data_in[21]
*129 la_data_in[22]
*130 la_data_in[23]
*131 la_data_in[24]
*132 la_data_in[25]
*133 la_data_in[26]
*134 la_data_in[27]
*135 la_data_in[28]
*136 la_data_in[29]
*137 la_data_in[2]
*138 la_data_in[30]
*139 la_data_in[31]
*140 la_data_in[32]
*141 la_data_in[33]
*142 la_data_in[34]
*143 la_data_in[35]
*144 la_data_in[36]
*145 la_data_in[37]
*146 la_data_in[38]
*147 la_data_in[39]
*148 la_data_in[3]
*149 la_data_in[40]
*150 la_data_in[41]
*151 la_data_in[42]
*152 la_data_in[43]
*153 la_data_in[44]
*154 la_data_in[45]
*155 la_data_in[46]
*156 la_data_in[47]
*157 la_data_in[48]
*158 la_data_in[49]
*159 la_data_in[4]
*160 la_data_in[50]
*161 la_data_in[51]
*162 la_data_in[52]
*163 la_data_in[53]
*164 la_data_in[54]
*165 la_data_in[55]
*166 la_data_in[56]
*167 la_data_in[57]
*168 la_data_in[58]
*169 la_data_in[59]
*170 la_data_in[5]
*171 la_data_in[60]
*172 la_data_in[61]
*173 la_data_in[62]
*174 la_data_in[63]
*175 la_data_in[6]
*176 la_data_in[7]
*177 la_data_in[8]
*178 la_data_in[9]
*179 la_data_out[0]
*180 la_data_out[10]
*181 la_data_out[11]
*182 la_data_out[12]
*183 la_data_out[13]
*184 la_data_out[14]
*185 la_data_out[15]
*186 la_data_out[16]
*187 la_data_out[17]
*188 la_data_out[18]
*189 la_data_out[19]
*190 la_data_out[1]
*191 la_data_out[20]
*192 la_data_out[21]
*193 la_data_out[22]
*194 la_data_out[23]
*195 la_data_out[24]
*196 la_data_out[25]
*197 la_data_out[26]
*198 la_data_out[27]
*199 la_data_out[28]
*200 la_data_out[29]
*201 la_data_out[2]
*202 la_data_out[30]
*203 la_data_out[31]
*204 la_data_out[32]
*205 la_data_out[33]
*206 la_data_out[34]
*207 la_data_out[35]
*208 la_data_out[36]
*209 la_data_out[37]
*210 la_data_out[38]
*211 la_data_out[39]
*212 la_data_out[3]
*213 la_data_out[40]
*214 la_data_out[41]
*215 la_data_out[42]
*216 la_data_out[43]
*217 la_data_out[44]
*218 la_data_out[45]
*219 la_data_out[46]
*220 la_data_out[47]
*221 la_data_out[48]
*222 la_data_out[49]
*223 la_data_out[4]
*224 la_data_out[50]
*225 la_data_out[51]
*226 la_data_out[52]
*227 la_data_out[53]
*228 la_data_out[54]
*229 la_data_out[55]
*230 la_data_out[56]
*231 la_data_out[57]
*232 la_data_out[58]
*233 la_data_out[59]
*234 la_data_out[5]
*235 la_data_out[60]
*236 la_data_out[61]
*237 la_data_out[62]
*238 la_data_out[63]
*239 la_data_out[6]
*240 la_data_out[7]
*241 la_data_out[8]
*242 la_data_out[9]
*243 la_oenb[0]
*244 la_oenb[10]
*245 la_oenb[11]
*246 la_oenb[12]
*247 la_oenb[13]
*248 la_oenb[14]
*249 la_oenb[15]
*250 la_oenb[16]
*251 la_oenb[17]
*252 la_oenb[18]
*253 la_oenb[19]
*254 la_oenb[1]
*255 la_oenb[20]
*256 la_oenb[21]
*257 la_oenb[22]
*258 la_oenb[23]
*259 la_oenb[24]
*260 la_oenb[25]
*261 la_oenb[26]
*262 la_oenb[27]
*263 la_oenb[28]
*264 la_oenb[29]
*265 la_oenb[2]
*266 la_oenb[30]
*267 la_oenb[31]
*268 la_oenb[32]
*269 la_oenb[33]
*270 la_oenb[34]
*271 la_oenb[35]
*272 la_oenb[36]
*273 la_oenb[37]
*274 la_oenb[38]
*275 la_oenb[39]
*276 la_oenb[3]
*277 la_oenb[40]
*278 la_oenb[41]
*279 la_oenb[42]
*280 la_oenb[43]
*281 la_oenb[44]
*282 la_oenb[45]
*283 la_oenb[46]
*284 la_oenb[47]
*285 la_oenb[48]
*286 la_oenb[49]
*287 la_oenb[4]
*288 la_oenb[50]
*289 la_oenb[51]
*290 la_oenb[52]
*291 la_oenb[53]
*292 la_oenb[54]
*293 la_oenb[55]
*294 la_oenb[56]
*295 la_oenb[57]
*296 la_oenb[58]
*297 la_oenb[59]
*298 la_oenb[5]
*299 la_oenb[60]
*300 la_oenb[61]
*301 la_oenb[62]
*302 la_oenb[63]
*303 la_oenb[6]
*304 la_oenb[7]
*305 la_oenb[8]
*306 la_oenb[9]
*307 user_clock2
*308 user_irq[0]
*309 user_irq[1]
*310 user_irq[2]
*313 wb_clk_i
*314 wb_rst_i
*315 wbs_ack_o
*316 wbs_adr_i[0]
*317 wbs_adr_i[10]
*318 wbs_adr_i[11]
*319 wbs_adr_i[12]
*320 wbs_adr_i[13]
*321 wbs_adr_i[14]
*322 wbs_adr_i[15]
*323 wbs_adr_i[16]
*324 wbs_adr_i[17]
*325 wbs_adr_i[18]
*326 wbs_adr_i[19]
*327 wbs_adr_i[1]
*328 wbs_adr_i[20]
*329 wbs_adr_i[21]
*330 wbs_adr_i[22]
*331 wbs_adr_i[23]
*332 wbs_adr_i[24]
*333 wbs_adr_i[25]
*334 wbs_adr_i[26]
*335 wbs_adr_i[27]
*336 wbs_adr_i[28]
*337 wbs_adr_i[29]
*338 wbs_adr_i[2]
*339 wbs_adr_i[30]
*340 wbs_adr_i[31]
*341 wbs_adr_i[3]
*342 wbs_adr_i[4]
*343 wbs_adr_i[5]
*344 wbs_adr_i[6]
*345 wbs_adr_i[7]
*346 wbs_adr_i[8]
*347 wbs_adr_i[9]
*348 wbs_cyc_i
*349 wbs_dat_i[0]
*350 wbs_dat_i[10]
*351 wbs_dat_i[11]
*352 wbs_dat_i[12]
*353 wbs_dat_i[13]
*354 wbs_dat_i[14]
*355 wbs_dat_i[15]
*356 wbs_dat_i[16]
*357 wbs_dat_i[17]
*358 wbs_dat_i[18]
*359 wbs_dat_i[19]
*360 wbs_dat_i[1]
*361 wbs_dat_i[20]
*362 wbs_dat_i[21]
*363 wbs_dat_i[22]
*364 wbs_dat_i[23]
*365 wbs_dat_i[24]
*366 wbs_dat_i[25]
*367 wbs_dat_i[26]
*368 wbs_dat_i[27]
*369 wbs_dat_i[28]
*370 wbs_dat_i[29]
*371 wbs_dat_i[2]
*372 wbs_dat_i[30]
*373 wbs_dat_i[31]
*374 wbs_dat_i[3]
*375 wbs_dat_i[4]
*376 wbs_dat_i[5]
*377 wbs_dat_i[6]
*378 wbs_dat_i[7]
*379 wbs_dat_i[8]
*380 wbs_dat_i[9]
*381 wbs_dat_o[0]
*382 wbs_dat_o[10]
*383 wbs_dat_o[11]
*384 wbs_dat_o[12]
*385 wbs_dat_o[13]
*386 wbs_dat_o[14]
*387 wbs_dat_o[15]
*388 wbs_dat_o[16]
*389 wbs_dat_o[17]
*390 wbs_dat_o[18]
*391 wbs_dat_o[19]
*392 wbs_dat_o[1]
*393 wbs_dat_o[20]
*394 wbs_dat_o[21]
*395 wbs_dat_o[22]
*396 wbs_dat_o[23]
*397 wbs_dat_o[24]
*398 wbs_dat_o[25]
*399 wbs_dat_o[26]
*400 wbs_dat_o[27]
*401 wbs_dat_o[28]
*402 wbs_dat_o[29]
*403 wbs_dat_o[2]
*404 wbs_dat_o[30]
*405 wbs_dat_o[31]
*406 wbs_dat_o[3]
*407 wbs_dat_o[4]
*408 wbs_dat_o[5]
*409 wbs_dat_o[6]
*410 wbs_dat_o[7]
*411 wbs_dat_o[8]
*412 wbs_dat_o[9]
*413 wbs_sel_i[0]
*414 wbs_sel_i[1]
*415 wbs_sel_i[2]
*416 wbs_sel_i[3]
*417 wbs_stb_i
*418 wbs_we_i
*419 mprj

*PORTS
io_in[0] I
io_in[10] I
io_in[11] I
io_in[12] I
io_in[13] I
io_in[14] I
io_in[15] I
io_in[16] I
io_in[17] I
io_in[18] I
io_in[19] I
io_in[1] I
io_in[20] I
io_in[21] I
io_in[22] I
io_in[23] I
io_in[24] I
io_in[25] I
io_in[26] I
io_in[27] I
io_in[28] I
io_in[29] I
io_in[2] I
io_in[30] I
io_in[31] I
io_in[32] I
io_in[33] I
io_in[34] I
io_in[35] I
io_in[36] I
io_in[37] I
io_in[3] I
io_in[4] I
io_in[5] I
io_in[6] I
io_in[7] I
io_in[8] I
io_in[9] I
io_oeb[0] O
io_oeb[10] O
io_oeb[11] O
io_oeb[12] O
io_oeb[13] O
io_oeb[14] O
io_oeb[15] O
io_oeb[16] O
io_oeb[17] O
io_oeb[18] O
io_oeb[19] O
io_oeb[1] O
io_oeb[20] O
io_oeb[21] O
io_oeb[22] O
io_oeb[23] O
io_oeb[24] O
io_oeb[25] O
io_oeb[26] O
io_oeb[27] O
io_oeb[28] O
io_oeb[29] O
io_oeb[2] O
io_oeb[30] O
io_oeb[31] O
io_oeb[32] O
io_oeb[33] O
io_oeb[34] O
io_oeb[35] O
io_oeb[36] O
io_oeb[37] O
io_oeb[3] O
io_oeb[4] O
io_oeb[5] O
io_oeb[6] O
io_oeb[7] O
io_oeb[8] O
io_oeb[9] O
io_out[0] O
io_out[10] O
io_out[11] O
io_out[12] O
io_out[13] O
io_out[14] O
io_out[15] O
io_out[16] O
io_out[17] O
io_out[18] O
io_out[19] O
io_out[1] O
io_out[20] O
io_out[21] O
io_out[22] O
io_out[23] O
io_out[24] O
io_out[25] O
io_out[26] O
io_out[27] O
io_out[28] O
io_out[29] O
io_out[2] O
io_out[30] O
io_out[31] O
io_out[32] O
io_out[33] O
io_out[34] O
io_out[35] O
io_out[36] O
io_out[37] O
io_out[3] O
io_out[4] O
io_out[5] O
io_out[6] O
io_out[7] O
io_out[8] O
io_out[9] O
la_data_in[0] I
la_data_in[10] I
la_data_in[11] I
la_data_in[12] I
la_data_in[13] I
la_data_in[14] I
la_data_in[15] I
la_data_in[16] I
la_data_in[17] I
la_data_in[18] I
la_data_in[19] I
la_data_in[1] I
la_data_in[20] I
la_data_in[21] I
la_data_in[22] I
la_data_in[23] I
la_data_in[24] I
la_data_in[25] I
la_data_in[26] I
la_data_in[27] I
la_data_in[28] I
la_data_in[29] I
la_data_in[2] I
la_data_in[30] I
la_data_in[31] I
la_data_in[32] I
la_data_in[33] I
la_data_in[34] I
la_data_in[35] I
la_data_in[36] I
la_data_in[37] I
la_data_in[38] I
la_data_in[39] I
la_data_in[3] I
la_data_in[40] I
la_data_in[41] I
la_data_in[42] I
la_data_in[43] I
la_data_in[44] I
la_data_in[45] I
la_data_in[46] I
la_data_in[47] I
la_data_in[48] I
la_data_in[49] I
la_data_in[4] I
la_data_in[50] I
la_data_in[51] I
la_data_in[52] I
la_data_in[53] I
la_data_in[54] I
la_data_in[55] I
la_data_in[56] I
la_data_in[57] I
la_data_in[58] I
la_data_in[59] I
la_data_in[5] I
la_data_in[60] I
la_data_in[61] I
la_data_in[62] I
la_data_in[63] I
la_data_in[6] I
la_data_in[7] I
la_data_in[8] I
la_data_in[9] I
la_data_out[0] O
la_data_out[10] O
la_data_out[11] O
la_data_out[12] O
la_data_out[13] O
la_data_out[14] O
la_data_out[15] O
la_data_out[16] O
la_data_out[17] O
la_data_out[18] O
la_data_out[19] O
la_data_out[1] O
la_data_out[20] O
la_data_out[21] O
la_data_out[22] O
la_data_out[23] O
la_data_out[24] O
la_data_out[25] O
la_data_out[26] O
la_data_out[27] O
la_data_out[28] O
la_data_out[29] O
la_data_out[2] O
la_data_out[30] O
la_data_out[31] O
la_data_out[32] O
la_data_out[33] O
la_data_out[34] O
la_data_out[35] O
la_data_out[36] O
la_data_out[37] O
la_data_out[38] O
la_data_out[39] O
la_data_out[3] O
la_data_out[40] O
la_data_out[41] O
la_data_out[42] O
la_data_out[43] O
la_data_out[44] O
la_data_out[45] O
la_data_out[46] O
la_data_out[47] O
la_data_out[48] O
la_data_out[49] O
la_data_out[4] O
la_data_out[50] O
la_data_out[51] O
la_data_out[52] O
la_data_out[53] O
la_data_out[54] O
la_data_out[55] O
la_data_out[56] O
la_data_out[57] O
la_data_out[58] O
la_data_out[59] O
la_data_out[5] O
la_data_out[60] O
la_data_out[61] O
la_data_out[62] O
la_data_out[63] O
la_data_out[6] O
la_data_out[7] O
la_data_out[8] O
la_data_out[9] O
la_oenb[0] I
la_oenb[10] I
la_oenb[11] I
la_oenb[12] I
la_oenb[13] I
la_oenb[14] I
la_oenb[15] I
la_oenb[16] I
la_oenb[17] I
la_oenb[18] I
la_oenb[19] I
la_oenb[1] I
la_oenb[20] I
la_oenb[21] I
la_oenb[22] I
la_oenb[23] I
la_oenb[24] I
la_oenb[25] I
la_oenb[26] I
la_oenb[27] I
la_oenb[28] I
la_oenb[29] I
la_oenb[2] I
la_oenb[30] I
la_oenb[31] I
la_oenb[32] I
la_oenb[33] I
la_oenb[34] I
la_oenb[35] I
la_oenb[36] I
la_oenb[37] I
la_oenb[38] I
la_oenb[39] I
la_oenb[3] I
la_oenb[40] I
la_oenb[41] I
la_oenb[42] I
la_oenb[43] I
la_oenb[44] I
la_oenb[45] I
la_oenb[46] I
la_oenb[47] I
la_oenb[48] I
la_oenb[49] I
la_oenb[4] I
la_oenb[50] I
la_oenb[51] I
la_oenb[52] I
la_oenb[53] I
la_oenb[54] I
la_oenb[55] I
la_oenb[56] I
la_oenb[57] I
la_oenb[58] I
la_oenb[59] I
la_oenb[5] I
la_oenb[60] I
la_oenb[61] I
la_oenb[62] I
la_oenb[63] I
la_oenb[6] I
la_oenb[7] I
la_oenb[8] I
la_oenb[9] I
user_clock2 I
user_irq[0] O
user_irq[1] O
user_irq[2] O
wb_clk_i I
wb_rst_i I
wbs_ack_o O
wbs_adr_i[0] I
wbs_adr_i[10] I
wbs_adr_i[11] I
wbs_adr_i[12] I
wbs_adr_i[13] I
wbs_adr_i[14] I
wbs_adr_i[15] I
wbs_adr_i[16] I
wbs_adr_i[17] I
wbs_adr_i[18] I
wbs_adr_i[19] I
wbs_adr_i[1] I
wbs_adr_i[20] I
wbs_adr_i[21] I
wbs_adr_i[22] I
wbs_adr_i[23] I
wbs_adr_i[24] I
wbs_adr_i[25] I
wbs_adr_i[26] I
wbs_adr_i[27] I
wbs_adr_i[28] I
wbs_adr_i[29] I
wbs_adr_i[2] I
wbs_adr_i[30] I
wbs_adr_i[31] I
wbs_adr_i[3] I
wbs_adr_i[4] I
wbs_adr_i[5] I
wbs_adr_i[6] I
wbs_adr_i[7] I
wbs_adr_i[8] I
wbs_adr_i[9] I
wbs_cyc_i I
wbs_dat_i[0] I
wbs_dat_i[10] I
wbs_dat_i[11] I
wbs_dat_i[12] I
wbs_dat_i[13] I
wbs_dat_i[14] I
wbs_dat_i[15] I
wbs_dat_i[16] I
wbs_dat_i[17] I
wbs_dat_i[18] I
wbs_dat_i[19] I
wbs_dat_i[1] I
wbs_dat_i[20] I
wbs_dat_i[21] I
wbs_dat_i[22] I
wbs_dat_i[23] I
wbs_dat_i[24] I
wbs_dat_i[25] I
wbs_dat_i[26] I
wbs_dat_i[27] I
wbs_dat_i[28] I
wbs_dat_i[29] I
wbs_dat_i[2] I
wbs_dat_i[30] I
wbs_dat_i[31] I
wbs_dat_i[3] I
wbs_dat_i[4] I
wbs_dat_i[5] I
wbs_dat_i[6] I
wbs_dat_i[7] I
wbs_dat_i[8] I
wbs_dat_i[9] I
wbs_dat_o[0] O
wbs_dat_o[10] O
wbs_dat_o[11] O
wbs_dat_o[12] O
wbs_dat_o[13] O
wbs_dat_o[14] O
wbs_dat_o[15] O
wbs_dat_o[16] O
wbs_dat_o[17] O
wbs_dat_o[18] O
wbs_dat_o[19] O
wbs_dat_o[1] O
wbs_dat_o[20] O
wbs_dat_o[21] O
wbs_dat_o[22] O
wbs_dat_o[23] O
wbs_dat_o[24] O
wbs_dat_o[25] O
wbs_dat_o[26] O
wbs_dat_o[27] O
wbs_dat_o[28] O
wbs_dat_o[29] O
wbs_dat_o[2] O
wbs_dat_o[30] O
wbs_dat_o[31] O
wbs_dat_o[3] O
wbs_dat_o[4] O
wbs_dat_o[5] O
wbs_dat_o[6] O
wbs_dat_o[7] O
wbs_dat_o[8] O
wbs_dat_o[9] O
wbs_sel_i[0] I
wbs_sel_i[1] I
wbs_sel_i[2] I
wbs_sel_i[3] I
wbs_stb_i I
wbs_we_i I

*D_NET *1 0.216239
*CONN
*P io_in[0] I
*I *419:a[0] I *D ffra
*CAP
1 io_in[0] 0.00468274
2 *419:a[0] 0.00429255
3 *1:12 0.074637
4 *1:11 0.0703444
5 *1:9 0.0287995
6 *1:7 0.0334823
*RES
1 io_in[0] *1:7 37.305 
2 *1:7 *1:9 225.54 
3 *1:9 *1:11 4.5 
4 *1:11 *1:12 542.79 
5 *1:12 *419:a[0] 35.325 
*END

*D_NET *2 0.279278
*CONN
*P io_in[10] I
*I *419:b[2] I *D ffra
*CAP
1 io_in[10] 0.00468274
2 *419:b[2] 0.000371762
3 *2:18 0.00539954
4 *2:17 0.00502777
5 *2:15 0.0196152
6 *2:14 0.0196152
7 *2:12 0.0127553
8 *2:11 0.0127553
9 *2:9 0.0317455
10 *2:7 0.0364282
11 *2:15 *38:11 0.11942
12 *2:18 *419:b[0] 2.36939e-05
13 *2:18 *419:b[1] 0.0114378
*RES
1 io_in[10] *2:7 37.305 
2 *2:7 *2:9 247.14 
3 *2:9 *2:11 4.5 
4 *2:11 *2:12 97.65 
5 *2:12 *2:14 4.5 
6 *2:14 *2:15 298.89 
7 *2:15 *2:17 4.5 
8 *2:17 *2:18 53.19 
9 *2:18 *419:b[2] 7.425 
*END

*D_NET *3 0.220356
*CONN
*P io_in[11] I
*I *419:b[3] I *D ffra
*CAP
1 io_in[11] 0.0003252
2 *419:b[3] 0.000328647
3 *3:26 0.00674113
4 *3:24 0.00647694
5 *3:19 0.0381883
6 *3:18 0.0403585
7 *3:13 0.0470696
8 *3:11 0.0451601
9 *3:24 *419:b[6] 0.0028768
10 *3:24 *419:b[7] 0.00159017
11 *3:24 *4:16 0.000564279
12 *3:26 *419:b[6] 0.00366485
13 *3:26 *4:16 0.0270111
*RES
1 io_in[11] *3:11 3.195 
2 *3:11 *3:13 283.77 
3 *3:13 *3:18 26.19 
4 *3:18 *3:19 298.71 
5 *3:19 *3:24 12.06 
6 *3:24 *3:26 92.61 
7 *3:26 *419:b[3] 7.065 
*END

*D_NET *4 0.217285
*CONN
*P io_in[12] I
*I *419:b[4] I *D ffra
*CAP
1 io_in[12] 0.000167227
2 *419:b[4] 0.000380337
3 *4:16 0.00764382
4 *4:15 0.00726348
5 *4:13 0.0743334
6 *4:11 0.0745006
7 *4:16 *419:b[7] 0.00381863
8 *4:16 *5:14 0.0216026
9 *3:24 *4:16 0.000564279
10 *3:26 *4:16 0.0270111
*RES
1 io_in[12] *4:11 2.115 
2 *4:11 *4:13 582.03 
3 *4:13 *4:15 4.5 
4 *4:15 *4:16 123.57 
5 *4:16 *419:b[4] 6.885 
*END

*D_NET *5 0.294736
*CONN
*P io_in[13] I
*I *419:b[5] I *D ffra
*CAP
1 io_in[13] 0.00100991
2 *419:b[5] 0.000285531
3 *5:14 0.00390033
4 *5:13 0.0036148
5 *5:11 0.0535016
6 *5:10 0.0535016
7 *5:8 0.0141727
8 *5:7 0.0151826
9 *5:8 io_out[11] 0.000145366
10 *5:11 *6:19 0.127819
11 *4:16 *5:14 0.0216026
*RES
1 io_in[13] *5:7 12.825 
2 *5:7 *5:8 109.53 
3 *5:8 *5:10 4.5 
4 *5:10 *5:11 573.57 
5 *5:11 *5:13 4.5 
6 *5:13 *5:14 54.99 
7 *5:14 *419:b[5] 6.705 
*END

*D_NET *6 0.310868
*CONN
*P io_in[14] I
*I *419:b[6] I *D ffra
*CAP
1 io_in[14] 0.000282333
2 *419:b[6] 0.00279408
3 *6:19 0.0239766
4 *6:18 0.0211825
5 *6:16 0.0223801
6 *6:15 0.0223801
7 *6:13 0.0413378
8 *6:11 0.0416201
9 *419:b[6] *419:b[7] 0.000554575
10 *3:24 *419:b[6] 0.0028768
11 *3:26 *419:b[6] 0.00366485
12 *5:11 *6:19 0.127819
*RES
1 io_in[14] *6:11 2.655 
2 *6:11 *6:13 262.17 
3 *6:13 *6:15 4.5 
4 *6:15 *6:16 171.45 
5 *6:16 *6:18 4.5 
6 *6:18 *6:19 320.49 
7 *6:19 *419:b[6] 43.155 
*END

*D_NET *7 0.210135
*CONN
*P io_in[15] I
*I *419:b[7] I *D ffra
*CAP
1 io_in[15] 0.0291128
2 *419:b[7] 0.000599858
3 *7:8 0.072973
4 *7:7 0.0723731
5 *7:5 0.0291128
6 *7:8 *88:7 0
7 *7:8 *88:9 0
8 *419:b[6] *419:b[7] 0.000554575
9 *3:24 *419:b[7] 0.00159017
10 *4:16 *419:b[7] 0.00381863
*RES
1 io_in[15] *7:5 224.325 
2 *7:5 *7:7 4.5 
3 *7:7 *7:8 564.57 
4 *7:8 *419:b[7] 21.375 
*END

*D_NET *8 0.219427
*CONN
*P io_in[16] I
*I *419:ci[0] I *D ffra
*CAP
1 io_in[16] 0.000247817
2 *419:ci[0] 0.00113097
3 *8:16 0.0480627
4 *8:15 0.0469317
5 *8:13 0.0540522
6 *8:11 0.0543
7 *419:ci[0] *22:19 0.0024421
8 *8:16 *9:14 0
9 *8:16 *10:14 0
10 *8:16 *20:19 0.0122596
11 *8:16 *22:19 0
*RES
1 io_in[16] *8:11 2.655 
2 *8:11 *8:13 416.07 
3 *8:13 *8:15 4.5 
4 *8:15 *8:16 407.79 
5 *8:16 *419:ci[0] 24.525 
*END

*D_NET *9 0.243842
*CONN
*P io_in[17] I
*I *419:ci[1] I *D ffra
*CAP
1 io_in[17] 0.00105188
2 *419:ci[1] 0.000133127
3 *9:14 0.0184367
4 *9:13 0.0183036
5 *9:11 0.0530112
6 *9:10 0.0574369
7 *9:7 0.00547758
8 *9:10 *83:14 0.00411107
9 *9:14 *15:14 0.0317673
10 *9:14 *18:19 0.0509211
11 *9:14 *19:11 0.00209259
12 *9:14 *20:19 0.00109847
13 *8:16 *9:14 0
*RES
1 io_in[17] *9:7 12.645 
2 *9:7 *9:10 44.37 
3 *9:10 *9:11 406.17 
4 *9:11 *9:13 4.5 
5 *9:13 *9:14 252.63 
6 *9:14 *419:ci[1] 5.355 
*END

*D_NET *10 0.242867
*CONN
*P io_in[18] I
*I *419:ci[2] I *D ffra
*CAP
1 io_in[18] 0.00107486
2 *419:ci[2] 0.000636114
3 *10:14 0.00817947
4 *10:13 0.00754336
5 *10:11 0.0535224
6 *10:10 0.0535224
7 *10:8 0.00577559
8 *10:7 0.00685045
9 *10:11 *81:11 0
10 *10:11 *114:11 0
11 *10:14 *419:ci[14] 0.00191375
12 *10:14 *14:14 0.0192623
13 *10:14 *21:11 0.0141242
14 *10:14 *22:19 0.0704621
15 *8:16 *10:14 0
*RES
1 io_in[18] *10:7 12.825 
2 *10:7 *10:8 46.17 
3 *10:8 *10:10 4.5 
4 *10:10 *10:11 409.59 
5 *10:11 *10:13 4.5 
6 *10:13 *10:14 216.99 
7 *10:14 *419:ci[2] 8.325 
*END

*D_NET *11 0.266331
*CONN
*P io_in[19] I
*I *419:ci[3] I *D ffra
*CAP
1 io_in[19] 0.00513471
2 *419:ci[3] 0
3 *11:62 0.0058366
4 *11:61 0.0058366
5 *11:59 0.0186358
6 *11:58 0.0225799
7 *11:49 0.00886621
8 *11:43 0.00763287
9 *11:34 0.00659949
10 *11:26 0.00914418
11 *11:20 0.0109737
12 *11:16 0.00934272
13 *11:11 0.00875913
14 *11:59 *13:11 0.111684
15 *11:62 *15:14 0.0353047
*RES
1 io_in[19] *11:11 48.465 
2 *11:11 *11:16 37.35 
3 *11:16 *11:20 46.44 
4 *11:20 *11:26 48.6 
5 *11:26 *11:34 43.02 
6 *11:34 *11:43 34.11 
7 *11:43 *11:49 47.34 
8 *11:49 *11:58 43.29 
9 *11:58 *11:59 284.31 
10 *11:59 *11:61 4.5 
11 *11:61 *11:62 88.47 
12 *11:62 *419:ci[3] 4.5 
*END

*D_NET *12 0.22021
*CONN
*P io_in[1] I
*I *419:a[1] I *D ffra
*CAP
1 io_in[1] 0.000350475
2 *419:a[1] 0.00134322
3 *12:19 0.00855655
4 *12:18 0.00721333
5 *12:16 0.0654709
6 *12:15 0.0654709
7 *12:13 0.0357273
8 *12:11 0.0360778
*RES
1 io_in[1] *12:11 3.195 
2 *12:11 *12:13 227.07 
3 *12:13 *12:15 4.5 
4 *12:15 *12:16 504.99 
5 *12:16 *12:18 4.5 
6 *12:18 *12:19 55.44 
7 *12:19 *419:a[1] 10.125 
*END

*D_NET *13 0.276997
*CONN
*P io_in[20] I
*I *419:ci[4] I *D ffra
*CAP
1 io_in[20] 0.00491026
2 *419:ci[4] 0.00071403
3 *13:14 0.00115897
4 *13:13 0.000444943
5 *13:11 0.0349732
6 *13:10 0.0398835
7 *13:14 *14:14 0.0416064
8 *13:14 *21:11 0.0416218
9 *11:59 *13:11 0.111684
*RES
1 io_in[20] *13:10 47.295 
2 *13:10 *13:11 409.95 
3 *13:11 *13:13 4.5 
4 *13:13 *13:14 104.31 
5 *13:14 *419:ci[4] 8.685 
*END

*D_NET *14 0.215449
*CONN
*P io_in[21] I
*I *419:ci[5] I *D ffra
*CAP
1 io_in[21] 0.00105188
2 *419:ci[5] 0.000675072
3 *14:14 0.0016402
4 *14:13 0.00096513
5 *14:11 0.0531638
6 *14:10 0.0531638
7 *14:8 0.00733455
8 *14:7 0.00838643
9 *14:8 *15:8 0.00950895
10 *14:14 *21:11 0.00422141
11 *14:14 *22:19 0.0144688
12 *10:14 *14:14 0.0192623
13 *13:14 *14:14 0.0416064
*RES
1 io_in[21] *14:7 12.645 
2 *14:7 *14:8 69.57 
3 *14:8 *14:10 4.5 
4 *14:10 *14:11 409.95 
5 *14:11 *14:13 4.5 
6 *14:13 *14:14 126.99 
7 *14:14 *419:ci[5] 8.505 
*END

*D_NET *15 0.250139
*CONN
*P io_in[22] I
*I *419:ci[6] I *D ffra
*CAP
1 io_in[22] 0.00107486
2 *419:ci[6] 0
3 *15:14 0.0075052
4 *15:13 0.0075052
5 *15:11 0.0525234
6 *15:10 0.0525234
7 *15:8 0.0151541
8 *15:7 0.0162289
9 *15:14 *419:clk 0.000450805
10 *15:14 *419:rst 0.000419169
11 *15:14 *18:19 0.0201734
12 *9:14 *15:14 0.0317673
13 *11:62 *15:14 0.0353047
14 *14:8 *15:8 0.00950895
*RES
1 io_in[22] *15:7 12.825 
2 *15:7 *15:8 130.05 
3 *15:8 *15:10 4.5 
4 *15:10 *15:11 405.81 
5 *15:11 *15:13 4.5 
6 *15:13 *15:14 188.91 
7 *15:14 *419:ci[6] 4.5 
*END

*D_NET *16 0.439999
*CONN
*P io_in[23] I
*I *419:ci[7] I *D ffra
*CAP
1 io_in[23] 0.000345489
2 *419:ci[7] 0.000118612
3 *16:16 0.00780827
4 *16:15 0.00768966
5 *16:13 0.0536854
6 *16:11 0.0540309
7 *16:16 *18:19 0.139042
8 *16:16 *19:11 0.177279
*RES
1 io_in[23] *16:11 3.195 
2 *16:11 *16:13 414.63 
3 *16:13 *16:15 4.5 
4 *16:15 *16:16 443.79 
5 *16:16 *419:ci[7] 5.085 
*END

*D_NET *17 0.494618
*CONN
*P io_in[24] I
*I *419:ci[8] I *D ffra
*CAP
1 io_in[24] 0.00119322
2 *419:ci[8] 0.000180537
3 *17:11 0.0124741
4 *17:10 0.0122935
5 *17:8 0.0520281
6 *17:7 0.0532213
7 *17:11 *19:11 0.211308
8 *17:11 *20:19 0.151919
*RES
1 io_in[24] *17:7 13.365 
2 *17:7 *17:8 401.31 
3 *17:8 *17:10 4.5 
4 *17:10 *17:11 536.85 
5 *17:11 *419:ci[8] 5.445 
*END

*D_NET *18 0.370768
*CONN
*P io_in[25] I
*I *419:ci[9] I *D ffra
*CAP
1 io_in[25] 0.000113196
2 *419:ci[9] 7.96535e-05
3 *18:19 0.011062
4 *18:18 0.0109823
5 *18:16 0.0429755
6 *18:15 0.0429755
7 *18:13 0.0232368
8 *18:11 0.02335
9 *18:19 *19:11 0.00585613
10 *9:14 *18:19 0.0509211
11 *15:14 *18:19 0.0201734
12 *16:16 *18:19 0.139042
*RES
1 io_in[25] *18:11 1.395 
2 *18:11 *18:13 181.71 
3 *18:13 *18:15 4.5 
4 *18:15 *18:16 332.01 
5 *18:16 *18:18 4.5 
6 *18:18 *18:19 380.07 
7 *18:19 *419:ci[9] 4.905 
*END

*D_NET *19 0.48961
*CONN
*P io_in[26] I
*I *419:ci[10] I *D ffra
*CAP
1 io_in[26] 0.00229909
2 *419:ci[10] 0.000125602
3 *19:11 0.00692349
4 *19:10 0.00679789
5 *19:8 0.0343382
6 *19:7 0.0366373
7 *19:11 *20:19 0.00595257
8 *9:14 *19:11 0.00209259
9 *16:16 *19:11 0.177279
10 *17:11 *19:11 0.211308
11 *18:19 *19:11 0.00585613
*RES
1 io_in[26] *19:7 21.465 
2 *19:7 *19:8 265.05 
3 *19:8 *19:10 4.5 
4 *19:10 *19:11 560.79 
5 *19:11 *419:ci[10] 5.265 
*END

*D_NET *20 0.31229
*CONN
*P io_in[27] I
*I *419:ci[11] I *D ffra
*CAP
1 io_in[27] 0.000370768
2 *419:ci[11] 0.000171565
3 *20:19 0.0236465
4 *20:18 0.0234749
5 *20:16 0.0253048
6 *20:15 0.0253048
7 *20:13 0.0212084
8 *20:11 0.0215792
9 *8:16 *20:19 0.0122596
10 *9:14 *20:19 0.00109847
11 *17:11 *20:19 0.151919
12 *19:11 *20:19 0.00595257
*RES
1 io_in[27] *20:11 3.015 
2 *20:11 *20:13 165.51 
3 *20:13 *20:15 4.5 
4 *20:15 *20:16 195.03 
5 *20:16 *20:18 4.5 
6 *20:18 *20:19 428.31 
7 *20:19 *419:ci[11] 5.625 
*END

*D_NET *21 0.228075
*CONN
*P io_in[28] I
*I *419:ci[12] I *D ffra
*CAP
1 io_in[28] 0.00197572
2 *419:ci[12] 0.000633134
3 *21:11 0.0560841
4 *21:10 0.055451
5 *21:8 0.0171995
6 *21:7 0.0191752
7 *21:11 *22:19 0.017589
8 *10:14 *21:11 0.0141242
9 *13:14 *21:11 0.0416218
10 *14:14 *21:11 0.00422141
*RES
1 io_in[28] *21:7 18.765 
2 *21:7 *21:8 132.57 
3 *21:8 *21:10 4.5 
4 *21:10 *21:11 595.53 
5 *21:11 *419:ci[12] 8.865 
*END

*D_NET *22 0.236792
*CONN
*P io_in[29] I
*I *419:ci[13] I *D ffra
*CAP
1 io_in[29] 0.000177869
2 *419:ci[13] 0.000509269
3 *22:19 0.0353563
4 *22:18 0.034847
5 *22:16 0.00817215
6 *22:15 0.00817215
7 *22:13 0.0222086
8 *22:11 0.0223864
9 *419:ci[0] *22:19 0.0024421
10 *8:16 *22:19 0
11 *10:14 *22:19 0.0704621
12 *14:14 *22:19 0.0144688
13 *21:11 *22:19 0.017589
*RES
1 io_in[29] *22:11 1.935 
2 *22:11 *22:13 173.61 
3 *22:13 *22:15 4.5 
4 *22:15 *22:16 62.55 
5 *22:16 *22:18 4.5 
6 *22:18 *22:19 452.25 
7 *22:19 *419:ci[13] 8.145 
*END

*D_NET *23 0.195512
*CONN
*P io_in[2] I
*I *419:a[2] I *D ffra
*CAP
1 io_in[2] 0.000167227
2 *419:a[2] 0.0013001
3 *23:19 0.0088368
4 *23:18 0.0075367
5 *23:16 0.060222
6 *23:15 0.060222
7 *23:13 0.0285302
8 *23:11 0.0286974
9 *419:a[2] *114:14 0
*RES
1 io_in[2] *23:11 2.115 
2 *23:11 *23:13 224.37 
3 *23:13 *23:15 4.5 
4 *23:15 *23:16 464.49 
5 *23:16 *23:18 4.5 
6 *23:18 *23:19 58.14 
7 *23:19 *419:a[2] 9.765 
*END

*D_NET *24 0.167035
*CONN
*P io_in[30] I
*I *419:ci[14] I *D ffra
*CAP
1 io_in[30] 0.000127055
2 *419:ci[14] 0.00396419
3 *24:13 0.0824335
4 *24:11 0.0785963
5 *24:13 *37:11 0
6 *10:14 *419:ci[14] 0.00191375
*RES
1 io_in[30] *24:11 1.395 
2 *24:11 *24:13 615.15 
3 *24:13 *419:ci[14] 49.005 
*END

*D_NET *25 0.187982
*CONN
*P io_in[31] I
*I *419:ci[15] I *D ffra
*CAP
1 io_in[31] 0.00181095
2 *419:ci[15] 0.000281523
3 *25:18 0.00658015
4 *25:17 0.00629863
5 *25:15 0.0615643
6 *25:14 0.065257
7 *25:9 0.0240357
8 *25:7 0.022154
*RES
1 io_in[31] *25:7 13.185 
2 *25:7 *25:9 160.74 
3 *25:9 *25:14 37.35 
4 *25:14 *25:15 482.13 
5 *25:15 *25:17 4.5 
6 *25:17 *25:18 47.97 
7 *25:18 *419:ci[15] 2.205 
*END

*D_NET *32 0.184769
*CONN
*P io_in[3] I
*I *419:a[3] I *D ffra
*CAP
1 io_in[3] 0.0277916
2 *419:a[3] 0.00127414
3 *32:11 0.00957477
4 *32:10 0.00830063
5 *32:8 0.055018
6 *32:7 0.055018
7 *32:5 0.0277916
*RES
1 io_in[3] *32:5 218.925 
2 *32:5 *32:7 4.5 
3 *32:7 *32:8 423.99 
4 *32:8 *32:10 4.5 
5 *32:10 *32:11 63.54 
6 *32:11 *419:a[3] 9.405 
*END

*D_NET *33 0.175964
*CONN
*P io_in[4] I
*I *419:a[4] I *D ffra
*CAP
1 io_in[4] 0.000276978
2 *419:a[4] 0.00146066
3 *33:19 0.0100827
4 *33:18 0.00862201
5 *33:16 0.0501314
6 *33:15 0.0501314
7 *33:13 0.0274908
8 *33:11 0.0277678
*RES
1 io_in[4] *33:11 2.655 
2 *33:11 *33:13 216.27 
3 *33:13 *33:15 4.5 
4 *33:15 *33:16 386.19 
5 *33:16 *33:18 4.5 
6 *33:18 *33:19 66.24 
7 *33:19 *419:a[4] 9.045 
*END

*D_NET *34 0.164519
*CONN
*P io_in[5] I
*I *419:a[5] I *D ffra
*CAP
1 io_in[5] 0.00468274
2 *419:a[5] 0.00117076
3 *34:15 0.0101314
4 *34:14 0.00896068
5 *34:12 0.0448896
6 *34:11 0.0448896
7 *34:9 0.0225557
8 *34:7 0.0272385
*RES
1 io_in[5] *34:7 37.305 
2 *34:7 *34:9 176.94 
3 *34:9 *34:11 4.5 
4 *34:11 *34:12 345.69 
5 *34:12 *34:14 4.5 
6 *34:14 *34:15 68.94 
7 *34:15 *419:a[5] 8.685 
*END

*D_NET *35 0.172485
*CONN
*P io_in[6] I
*I *419:a[6] I *D ffra
*CAP
1 io_in[6] 0.000337838
2 *419:a[6] 0.0127426
3 *35:18 0.0127426
4 *35:16 0.0399568
5 *35:15 0.0399568
6 *35:13 0.0332054
7 *35:11 0.0335433
*RES
1 io_in[6] *35:11 3.195 
2 *35:11 *35:13 210.87 
3 *35:13 *35:15 4.5 
4 *35:15 *35:16 307.89 
5 *35:16 *35:18 4.5 
6 *35:18 *419:a[6] 79.785 
*END

*D_NET *36 0.144479
*CONN
*P io_in[7] I
*I *419:a[7] I *D ffra
*CAP
1 io_in[7] 0.000167227
2 *419:a[7] 0.0008997
3 *36:19 0.0201677
4 *36:18 0.019268
5 *36:16 0.0343828
6 *36:15 0.0343828
7 *36:13 0.0175216
8 *36:11 0.0176888
*RES
1 io_in[7] *36:11 2.115 
2 *36:11 *36:13 137.97 
3 *36:13 *36:15 4.5 
4 *36:15 *36:16 264.69 
5 *36:16 *36:18 4.5 
6 *36:18 *36:19 149.13 
7 *36:19 *419:a[7] 15.075 
*END

*D_NET *37 0.164976
*CONN
*P io_in[8] I
*I *419:b[0] I *D ffra
*CAP
1 io_in[8] 0.0560211
2 *419:b[0] 0.00282231
3 *37:11 0.0234838
4 *37:10 0.022632
5 *37:5 0.0579917
6 *419:b[0] *419:b[1] 0.00200129
7 *2:18 *419:b[0] 2.36939e-05
8 *24:13 *37:11 0
*RES
1 io_in[8] *37:5 437.625 
2 *37:5 *37:10 23.85 
3 *37:10 *37:11 144.63 
4 *37:11 *419:b[0] 31.455 
*END

*D_NET *38 0.257669
*CONN
*P io_in[9] I
*I *419:b[1] I *D ffra
*CAP
1 io_in[9] 0.00548278
2 *419:b[1] 0.00190682
3 *38:11 0.0569217
4 *38:10 0.0550149
5 *38:8 0.00548278
6 *419:b[0] *419:b[1] 0.00200129
7 *2:15 *38:11 0.11942
8 *2:18 *419:b[1] 0.0114378
*RES
1 io_in[9] *38:8 47.115 
2 *38:8 *38:10 4.5 
3 *38:10 *38:11 574.11 
4 *38:11 *419:b[1] 40.815 
*END

*D_NET *77 0.381412
*CONN
*P io_out[0] O
*I *419:o[0] O *D ffra
*CAP
1 io_out[0] 0.00463962
2 *419:o[0] 0.000686893
3 *77:14 0.0353955
4 *77:13 0.0307559
5 *77:11 0.0920109
6 *77:10 0.0920109
7 *77:8 0.0259557
8 *77:7 0.0266426
9 *77:8 *111:8 0.0733142
*RES
1 *419:o[0] *77:7 8.685 
2 *77:7 *77:8 291.87 
3 *77:8 *77:10 4.5 
4 *77:10 *77:11 707.67 
5 *77:11 *77:13 4.5 
6 *77:13 *77:14 241.74 
7 *77:14 io_out[0] 36.945 
*END

*D_NET *78 0.150049
*CONN
*P io_out[10] O
*I *419:o[10] O *D ffra
*CAP
1 io_out[10] 0.00463962
2 *419:o[10] 0
3 *78:11 0.0342565
4 *78:10 0.0296169
5 *78:8 0.00859731
6 *78:7 0.00859731
7 *78:5 0.00481355
8 *78:4 0.00481355
9 *78:5 *79:8 0.00744506
10 *78:5 *88:9 0.00151046
11 *78:5 *109:9 0.0457591
*RES
1 *419:o[10] *78:4 4.5 
2 *78:4 *78:5 122.67 
3 *78:5 *78:7 4.5 
4 *78:7 *78:8 65.25 
5 *78:8 *78:10 4.5 
6 *78:10 *78:11 230.94 
7 *78:11 io_out[10] 36.945 
*END

*D_NET *79 0.096688
*CONN
*P io_out[11] O
*I *419:o[11] O *D ffra
*CAP
1 io_out[11] 0.00131312
2 *419:o[11] 0.000143634
3 *79:8 0.0444052
4 *79:7 0.0432357
5 *79:8 *88:9 0
6 *79:8 *99:8 0
7 *79:8 *108:8 0
8 *5:8 io_out[11] 0.000145366
9 *78:5 *79:8 0.00744506
*RES
1 *419:o[11] *79:7 5.625 
2 *79:7 *79:8 362.07 
3 *79:8 io_out[11] 19.935 
*END

*D_NET *80 0.132533
*CONN
*P io_out[12] O
*I *419:o[12] O *D ffra
*CAP
1 io_out[12] 0.000146231
2 *419:o[12] 0.00118132
3 *80:14 0.0329266
4 *80:13 0.0327803
5 *80:11 0.00687413
6 *80:10 0.00687413
7 *80:8 0.0158474
8 *80:7 0.0170288
9 *80:8 *81:8 0.0188739
*RES
1 *419:o[12] *80:7 12.465 
2 *80:7 *80:8 146.07 
3 *80:8 *80:10 4.5 
4 *80:10 *80:11 52.83 
5 *80:11 *80:13 4.5 
6 *80:13 *80:14 208.17 
7 *80:14 io_out[12] 1.755 
*END

*D_NET *81 0.131802
*CONN
*P io_out[13] O
*I *419:o[13] O *D ffra
*CAP
1 io_out[13] 0.000345078
2 *419:o[13] 0.00122028
3 *81:14 0.0372963
4 *81:13 0.0369512
5 *81:11 0.014913
6 *81:10 0.014913
7 *81:8 0.00303468